1



                                 *********************************************

                                    NUMERICAL ELECTROMAGNETICS CODE (NEC-2D)

                                 *********************************************




                                     - - - - COMMENTS - - - -


                          SEM52SL Antenna -- short                                                   
                                                                                                     
                                                                                                     
                                                                                                     
                                                                                                     
                          forw: 0, 0 ; back: 0, 180                                                  
                                                                                                     




                                 - - - STRUCTURE SPECIFICATION - - -

                                     COORDINATES MUST BE INPUT IN
                                     METERS OR BE SCALED TO METERS
                                     BEFORE STRUCTURE INPUT IS ENDED


  WIRE                                                                               NO. OF    FIRST  LAST     TAG
  NO.        X1         Y1         Z1          X2         Y2         Z2      RADIUS   SEG.     SEG.   SEG.     NO.
     1    0.00000    0.00000    0.00000     0.00000    0.00000    0.40000    0.00010      9        1     9       1

   GROUND PLANE SPECIFIED.

   WHERE WIRE ENDS TOUCH GROUND, CURRENT WILL BE INTERPOLATED TO IMAGE IN GROUND PLANE.


   TOTAL SEGMENTS USED=    9     NO. SEG. IN A SYMMETRIC CELL=    9     SYMMETRY FLAG=  0


         - MULTIPLE WIRE JUNCTIONS -
 JUNCTION    SEGMENTS  (- FOR END 1, + FOR END 2)
  NONE




                                 - - - - SEGMENTATION DATA - - - -

                                        COORDINATES IN METERS

                         I+ AND I- INDICATE THE SEGMENTS BEFORE AND AFTER I


  SEG.   COORDINATES OF SEG. CENTER     SEG.     ORIENTATION ANGLES    WIRE    CONNECTION DATA   TAG
  NO.       X         Y         Z       LENGTH     ALPHA     BETA      RADIUS    I-   I    I+    NO.
     1   0.00000   0.00000   0.02222   0.04444   90.00000   0.00000   0.00010     1    1    2      1
     2   0.00000   0.00000   0.06667   0.04444   90.00000   0.00000   0.00010     1    2    3      1
     3   0.00000   0.00000   0.11111   0.04444   90.00000   0.00000   0.00010     2    3    4      1
     4   0.00000   0.00000   0.15556   0.04444   90.00000   0.00000   0.00010     3    4    5      1
     5   0.00000   0.00000   0.20000   0.04444   90.00000   0.00000   0.00010     4    5    6      1
     6   0.00000   0.00000   0.24444   0.04444   90.00000   0.00000   0.00010     5    6    7      1
     7   0.00000   0.00000   0.28889   0.04444   90.00000   0.00000   0.00010     6    7    8      1
     8   0.00000   0.00000   0.33333   0.04444   90.00000   0.00000   0.00010     7    8    9      1
     9   0.00000   0.00000   0.37778   0.04444   90.00000   0.00000   0.00010     8    9    0      1






 ***** DATA CARD NO.  1   LD   4     1     9     9  5.00000E+01  0.00000E+00  0.00000E+00  0.00000E+00  0.00000E+00  0.00000E+00
 ***** DATA CARD NO.  2   GN   0     0     0     0  4.00000E+00  3.00000E-03  0.00000E+00  0.00000E+00  0.00000E+00  0.00000E+00
 ***** DATA CARD NO.  3   EK   0     0     0     0  0.00000E+00  0.00000E+00  0.00000E+00  0.00000E+00  0.00000E+00  0.00000E+00
 ***** DATA CARD NO.  4   EX   0     1     1     0  1.00000E+00  0.00000E+00  0.00000E+00  0.00000E+00  0.00000E+00  0.00000E+00
 ***** DATA CARD NO.  5   FR   0     1     0     0  3.00000E+01  0.00000E+00  0.00000E+00  0.00000E+00  0.00000E+00  0.00000E+00
 ***** DATA CARD NO.  6   XQ   0     0     0     0  0.00000E+00  0.00000E+00  0.00000E+00  0.00000E+00  0.00000E+00  0.00000E+00




                                 - - - - - - FREQUENCY - - - - - -

                                    FREQUENCY= 3.0000E+01 MHZ
                                    WAVELENGTH= 9.9933E+00 METERS




                    APPROXIMATE INTEGRATION EMPLOYED FOR SEGMENTS MORE THAN   1.000 WAVELENGTHS APART

                    THE EXTENDED THIN WIRE KERNEL WILL BE USED



                               - - - STRUCTURE IMPEDANCE LOADING - - -


       LOCATION          RESISTANCE   INDUCTANCE  CAPACITANCE       IMPEDANCE (OHMS)     CONDUCTIVITY    TYPE
    ITAG FROM THRU          OHMS        HENRYS       FARADS        REAL      IMAGINARY    MHOS/METER

       1    9    9                                             5.0000E+01                             FIXED IMPEDANCE 



                                  - - - ANTENNA ENVIRONMENT - - -

                                        FINITE GROUND.  REFLECTION COEFFICIENT APPROXIMATION
                                        RELATIVE DIELECTRIC CONST.=  4.000
                                        CONDUCTIVITY= 3.000E-03 MHOS/METER
                                        COMPLEX DIELECTRIC CONSTANT= 4.00000E+00-1.79760E+00



                                - - - MATRIX TIMING - - -

                        FILL=    0.000 SEC.,  FACTOR=    0.000 SEC.



                                          - - - ANTENNA INPUT PARAMETERS - - -

   TAG   SEG.    VOLTAGE (VOLTS)         CURRENT (AMPS)         IMPEDANCE (OHMS)        ADMITTANCE (MHOS)      POWER
   NO.   NO.    REAL        IMAG.       REAL        IMAG.       REAL        IMAG.       REAL        IMAG.     (WATTS)
     1     1 1.00000E+00 0.00000E+00 1.81040E-05 2.01254E-04 4.43390E+02-4.92896E+03 1.81040E-05 2.01254E-04 9.05202E-06



                             - - - CURRENTS AND LOCATION - - -

                                 DISTANCES IN WAVELENGTHS


  SEG.  TAG    COORD. OF SEG. CENTER     SEG.            - - - CURRENT (AMPS) - - -
  NO.   NO.     X        Y        Z      LENGTH     REAL        IMAG.       MAG.        PHASE
     1    1   0.0000   0.0000   0.0022  0.00445   1.8104E-05  2.0125E-04  2.0207E-04   84.860
     2    1   0.0000   0.0000   0.0067  0.00445   1.6246E-05  1.7338E-04  1.7414E-04   84.647
     3    1   0.0000   0.0000   0.0111  0.00445   1.4125E-05  1.4731E-04  1.4798E-04   84.523
     4    1   0.0000   0.0000   0.0156  0.00445   1.2018E-05  1.2389E-04  1.2447E-04   84.459
     5    1   0.0000   0.0000   0.0200  0.00445   9.9209E-06  1.0150E-04  1.0198E-04   84.417
     6    1   0.0000   0.0000   0.0245  0.00445   7.8221E-06  7.9575E-05  7.9958E-05   84.386
     7    1   0.0000   0.0000   0.0289  0.00445   5.7080E-06  5.7780E-05  5.8061E-05   84.358
     8    1   0.0000   0.0000   0.0334  0.00445   3.5567E-06  3.5793E-05  3.5969E-05   84.325
     9    1   0.0000   0.0000   0.0378  0.00445   1.2858E-06  1.2793E-05  1.2857E-05   84.260



                                        - - - POWER BUDGET - - -

                                           INPUT POWER   = 9.0520E-06 WATTS
                                           RADIATED POWER= 9.0479E-06 WATTS
                                           STRUCTURE LOSS= 4.1326E-09 WATTS
                                           NETWORK LOSS  = 0.0000E+00 WATTS
                                           EFFICIENCY    =  99.95 PERCENT






 ***** DATA CARD NO.  7   FR   0    11     0     0  3.00000E+01  6.00000E+00  0.00000E+00  0.00000E+00  0.00000E+00  0.00000E+00
 ***** DATA CARD NO.  8   RP   0    19    37  1000 -9.00000E+01  0.00000E+00  1.00000E+01  1.00000E+01  0.00000E+00  0.00000E+00




                                 - - - - - - FREQUENCY - - - - - -

                                    FREQUENCY= 3.0000E+01 MHZ
                                    WAVELENGTH= 9.9933E+00 METERS




                    APPROXIMATE INTEGRATION EMPLOYED FOR SEGMENTS MORE THAN   1.000 WAVELENGTHS APART

                    THE EXTENDED THIN WIRE KERNEL WILL BE USED



                               - - - STRUCTURE IMPEDANCE LOADING - - -


       LOCATION          RESISTANCE   INDUCTANCE  CAPACITANCE       IMPEDANCE (OHMS)     CONDUCTIVITY    TYPE
    ITAG FROM THRU          OHMS        HENRYS       FARADS        REAL      IMAGINARY    MHOS/METER

       1    9    9                                             5.0000E+01                             FIXED IMPEDANCE 



                                  - - - ANTENNA ENVIRONMENT - - -

                                        FINITE GROUND.  REFLECTION COEFFICIENT APPROXIMATION
                                        RELATIVE DIELECTRIC CONST.=  4.000
                                        CONDUCTIVITY= 3.000E-03 MHOS/METER
                                        COMPLEX DIELECTRIC CONSTANT= 4.00000E+00-1.79760E+00



                                - - - MATRIX TIMING - - -

                        FILL=    0.000 SEC.,  FACTOR=    0.000 SEC.



                                          - - - ANTENNA INPUT PARAMETERS - - -

   TAG   SEG.    VOLTAGE (VOLTS)         CURRENT (AMPS)         IMPEDANCE (OHMS)        ADMITTANCE (MHOS)      POWER
   NO.   NO.    REAL        IMAG.       REAL        IMAG.       REAL        IMAG.       REAL        IMAG.     (WATTS)
     1     1 1.00000E+00 0.00000E+00 1.81040E-05 2.01254E-04 4.43390E+02-4.92896E+03 1.81040E-05 2.01254E-04 9.05202E-06



                             - - - CURRENTS AND LOCATION - - -

                                 DISTANCES IN WAVELENGTHS


  SEG.  TAG    COORD. OF SEG. CENTER     SEG.            - - - CURRENT (AMPS) - - -
  NO.   NO.     X        Y        Z      LENGTH     REAL        IMAG.       MAG.        PHASE
     1    1   0.0000   0.0000   0.0022  0.00445   1.8104E-05  2.0125E-04  2.0207E-04   84.860
     2    1   0.0000   0.0000   0.0067  0.00445   1.6246E-05  1.7338E-04  1.7414E-04   84.647
     3    1   0.0000   0.0000   0.0111  0.00445   1.4125E-05  1.4731E-04  1.4798E-04   84.523
     4    1   0.0000   0.0000   0.0156  0.00445   1.2018E-05  1.2389E-04  1.2447E-04   84.459
     5    1   0.0000   0.0000   0.0200  0.00445   9.9209E-06  1.0150E-04  1.0198E-04   84.417
     6    1   0.0000   0.0000   0.0245  0.00445   7.8221E-06  7.9575E-05  7.9958E-05   84.386
     7    1   0.0000   0.0000   0.0289  0.00445   5.7080E-06  5.7780E-05  5.8061E-05   84.358
     8    1   0.0000   0.0000   0.0334  0.00445   3.5567E-06  3.5793E-05  3.5969E-05   84.325
     9    1   0.0000   0.0000   0.0378  0.00445   1.2858E-06  1.2793E-05  1.2857E-05   84.260



                                        - - - POWER BUDGET - - -

                                           INPUT POWER   = 9.0520E-06 WATTS
                                           RADIATED POWER= 9.0479E-06 WATTS
                                           STRUCTURE LOSS= 4.1326E-09 WATTS
                                           NETWORK LOSS  = 0.0000E+00 WATTS
                                           EFFICIENCY    =  99.95 PERCENT



                                                - - - RADIATION PATTERNS - - -

  - - ANGLES - -           - POWER GAINS -       - - - POLARIZATION - - -    - - - E(THETA) - - -    - - - E(PHI) - - -
  THETA     PHI        VERT.   HOR.    TOTAL      AXIAL     TILT   SENSE     MAGNITUDE    PHASE      MAGNITUDE    PHASE 
 DEGREES  DEGREES       DB      DB      DB        RATIO     DEG.              VOLTS/M    DEGREES      VOLTS/M    DEGREES
  -90.00     0.00    -999.99 -999.99 -999.99    0.00000     0.00            1.86865E-14   167.86    0.00000E+00     0.00
  -80.00     0.00     -34.38 -999.99  -34.38    0.00000     0.00  LINEAR    4.44789E-04    -9.70    0.00000E+00     0.00
  -70.00     0.00     -31.10 -999.99  -31.10    0.00000     0.00  LINEAR    6.49338E-04    -8.52    0.00000E+00     0.00
  -60.00     0.00     -30.19 -999.99  -30.19    0.00000     0.00  LINEAR    7.20795E-04    -7.89    0.00000E+00     0.00
  -50.00     0.00     -30.38 -999.99  -30.38    0.00000     0.00  LINEAR    7.05315E-04    -7.54    0.00000E+00     0.00
  -40.00     0.00     -31.38 -999.99  -31.38    0.00000     0.00  LINEAR    6.28405E-04    -7.33    0.00000E+00     0.00
  -30.00     0.00     -33.24 -999.99  -33.24    0.00000     0.00  LINEAR    5.07140E-04    -7.20    0.00000E+00     0.00
  -20.00     0.00     -36.35 -999.99  -36.35    0.00000     0.00  LINEAR    3.54683E-04    -7.13    0.00000E+00     0.00
  -10.00     0.00     -42.13 -999.99  -42.13    0.00000     0.00  LINEAR    1.82234E-04    -7.09    0.00000E+00     0.00
    0.00     0.00    -999.99 -999.99 -999.99    0.00000     0.00            0.00000E+00     0.00    0.00000E+00     0.00
   10.00     0.00     -42.13 -999.99  -42.13    0.00000     0.00  LINEAR    1.82234E-04   172.91    0.00000E+00     0.00
   20.00     0.00     -36.35 -999.99  -36.35    0.00000     0.00  LINEAR    3.54683E-04   172.87    0.00000E+00     0.00
   30.00     0.00     -33.24 -999.99  -33.24    0.00000     0.00  LINEAR    5.07140E-04   172.80    0.00000E+00     0.00
   40.00     0.00     -31.38 -999.99  -31.38    0.00000     0.00  LINEAR    6.28405E-04   172.67    0.00000E+00     0.00
   50.00     0.00     -30.38 -999.99  -30.38    0.00000     0.00  LINEAR    7.05315E-04   172.46    0.00000E+00     0.00
   60.00     0.00     -30.19 -999.99  -30.19    0.00000     0.00  LINEAR    7.20795E-04   172.11    0.00000E+00     0.00
   70.00     0.00     -31.10 -999.99  -31.10    0.00000     0.00  LINEAR    6.49338E-04   171.48    0.00000E+00     0.00
   80.00     0.00     -34.38 -999.99  -34.38    0.00000     0.00  LINEAR    4.44789E-04   170.30    0.00000E+00     0.00
   90.00     0.00    -999.99 -999.99 -999.99    0.00000     0.00            1.86865E-14   -12.14    0.00000E+00     0.00
  -90.00    10.00    -999.99 -999.99 -999.99    0.00000     0.00            1.86865E-14   167.86    0.00000E+00     0.00
  -80.00    10.00     -34.38 -999.99  -34.38    0.00000     0.00  LINEAR    4.44789E-04    -9.70    0.00000E+00     0.00
  -70.00    10.00     -31.10 -999.99  -31.10    0.00000     0.00  LINEAR    6.49338E-04    -8.52    0.00000E+00     0.00
  -60.00    10.00     -30.19 -999.99  -30.19    0.00000     0.00  LINEAR    7.20795E-04    -7.89    0.00000E+00     0.00
  -50.00    10.00     -30.38 -999.99  -30.38    0.00000     0.00  LINEAR    7.05315E-04    -7.54    0.00000E+00     0.00
  -40.00    10.00     -31.38 -999.99  -31.38    0.00000     0.00  LINEAR    6.28405E-04    -7.33    0.00000E+00     0.00
  -30.00    10.00     -33.24 -999.99  -33.24    0.00000     0.00  LINEAR    5.07140E-04    -7.20    0.00000E+00     0.00
  -20.00    10.00     -36.35 -999.99  -36.35    0.00000     0.00  LINEAR    3.54683E-04    -7.13    0.00000E+00     0.00
  -10.00    10.00     -42.13 -999.99  -42.13    0.00000     0.00  LINEAR    1.82234E-04    -7.09    0.00000E+00     0.00
    0.00    10.00    -999.99 -999.99 -999.99    0.00000     0.00            0.00000E+00     0.00    0.00000E+00     0.00
   10.00    10.00     -42.13 -999.99  -42.13    0.00000     0.00  LINEAR    1.82234E-04   172.91    0.00000E+00     0.00
   20.00    10.00     -36.35 -999.99  -36.35    0.00000     0.00  LINEAR    3.54683E-04   172.87    0.00000E+00     0.00
   30.00    10.00     -33.24 -999.99  -33.24    0.00000     0.00  LINEAR    5.07140E-04   172.80    0.00000E+00     0.00
   40.00    10.00     -31.38 -999.99  -31.38    0.00000     0.00  LINEAR    6.28405E-04   172.67    0.00000E+00     0.00
   50.00    10.00     -30.38 -999.99  -30.38    0.00000     0.00  LINEAR    7.05315E-04   172.46    0.00000E+00     0.00
   60.00    10.00     -30.19 -999.99  -30.19    0.00000     0.00  LINEAR    7.20795E-04   172.11    0.00000E+00     0.00
   70.00    10.00     -31.10 -999.99  -31.10    0.00000     0.00  LINEAR    6.49338E-04   171.48    0.00000E+00     0.00
   80.00    10.00     -34.38 -999.99  -34.38    0.00000     0.00  LINEAR    4.44789E-04   170.30    0.00000E+00     0.00
   90.00    10.00    -999.99 -999.99 -999.99    0.00000     0.00            1.86865E-14   -12.14    0.00000E+00     0.00
  -90.00    20.00    -999.99 -999.99 -999.99    0.00000     0.00            1.86865E-14   167.86    0.00000E+00     0.00
  -80.00    20.00     -34.38 -999.99  -34.38    0.00000     0.00  LINEAR    4.44789E-04    -9.70    0.00000E+00     0.00
  -70.00    20.00     -31.10 -999.99  -31.10    0.00000     0.00  LINEAR    6.49338E-04    -8.52    0.00000E+00     0.00
  -60.00    20.00     -30.19 -999.99  -30.19    0.00000     0.00  LINEAR    7.20795E-04    -7.89    0.00000E+00     0.00
  -50.00    20.00     -30.38 -999.99  -30.38    0.00000     0.00  LINEAR    7.05315E-04    -7.54    0.00000E+00     0.00
  -40.00    20.00     -31.38 -999.99  -31.38    0.00000     0.00  LINEAR    6.28405E-04    -7.33    0.00000E+00     0.00
  -30.00    20.00     -33.24 -999.99  -33.24    0.00000     0.00  LINEAR    5.07140E-04    -7.20    0.00000E+00     0.00
  -20.00    20.00     -36.35 -999.99  -36.35    0.00000     0.00  LINEAR    3.54683E-04    -7.13    0.00000E+00     0.00
  -10.00    20.00     -42.13 -999.99  -42.13    0.00000     0.00  LINEAR    1.82234E-04    -7.09    0.00000E+00     0.00
    0.00    20.00    -999.99 -999.99 -999.99    0.00000     0.00            0.00000E+00     0.00    0.00000E+00     0.00
   10.00    20.00     -42.13 -999.99  -42.13    0.00000     0.00  LINEAR    1.82234E-04   172.91    0.00000E+00     0.00
   20.00    20.00     -36.35 -999.99  -36.35    0.00000     0.00  LINEAR    3.54683E-04   172.87    0.00000E+00     0.00
   30.00    20.00     -33.24 -999.99  -33.24    0.00000     0.00  LINEAR    5.07140E-04   172.80    0.00000E+00     0.00
   40.00    20.00     -31.38 -999.99  -31.38    0.00000     0.00  LINEAR    6.28405E-04   172.67    0.00000E+00     0.00
   50.00    20.00     -30.38 -999.99  -30.38    0.00000     0.00  LINEAR    7.05315E-04   172.46    0.00000E+00     0.00
   60.00    20.00     -30.19 -999.99  -30.19    0.00000     0.00  LINEAR    7.20795E-04   172.11    0.00000E+00     0.00
   70.00    20.00     -31.10 -999.99  -31.10    0.00000     0.00  LINEAR    6.49338E-04   171.48    0.00000E+00     0.00
   80.00    20.00     -34.38 -999.99  -34.38    0.00000     0.00  LINEAR    4.44789E-04   170.30    0.00000E+00     0.00
   90.00    20.00    -999.99 -999.99 -999.99    0.00000     0.00            1.86865E-14   -12.14    0.00000E+00     0.00
  -90.00    30.00    -999.99 -999.99 -999.99    0.00000     0.00            1.86865E-14   167.86    0.00000E+00     0.00
  -80.00    30.00     -34.38 -999.99  -34.38    0.00000     0.00  LINEAR    4.44789E-04    -9.70    0.00000E+00     0.00
  -70.00    30.00     -31.10 -999.99  -31.10    0.00000     0.00  LINEAR    6.49338E-04    -8.52    0.00000E+00     0.00
  -60.00    30.00     -30.19 -999.99  -30.19    0.00000     0.00  LINEAR    7.20795E-04    -7.89    0.00000E+00     0.00
  -50.00    30.00     -30.38 -999.99  -30.38    0.00000     0.00  LINEAR    7.05315E-04    -7.54    0.00000E+00     0.00
  -40.00    30.00     -31.38 -999.99  -31.38    0.00000     0.00  LINEAR    6.28405E-04    -7.33    0.00000E+00     0.00
  -30.00    30.00     -33.24 -999.99  -33.24    0.00000     0.00  LINEAR    5.07140E-04    -7.20    0.00000E+00     0.00
  -20.00    30.00     -36.35 -999.99  -36.35    0.00000     0.00  LINEAR    3.54683E-04    -7.13    0.00000E+00     0.00
  -10.00    30.00     -42.13 -999.99  -42.13    0.00000     0.00  LINEAR    1.82234E-04    -7.09    0.00000E+00     0.00
    0.00    30.00    -999.99 -999.99 -999.99    0.00000     0.00            0.00000E+00     0.00    0.00000E+00     0.00
   10.00    30.00     -42.13 -999.99  -42.13    0.00000     0.00  LINEAR    1.82234E-04   172.91    0.00000E+00     0.00
   20.00    30.00     -36.35 -999.99  -36.35    0.00000     0.00  LINEAR    3.54683E-04   172.87    0.00000E+00     0.00
   30.00    30.00     -33.24 -999.99  -33.24    0.00000     0.00  LINEAR    5.07140E-04   172.80    0.00000E+00     0.00
   40.00    30.00     -31.38 -999.99  -31.38    0.00000     0.00  LINEAR    6.28405E-04   172.67    0.00000E+00     0.00
   50.00    30.00     -30.38 -999.99  -30.38    0.00000     0.00  LINEAR    7.05315E-04   172.46    0.00000E+00     0.00
   60.00    30.00     -30.19 -999.99  -30.19    0.00000     0.00  LINEAR    7.20795E-04   172.11    0.00000E+00     0.00
   70.00    30.00     -31.10 -999.99  -31.10    0.00000     0.00  LINEAR    6.49338E-04   171.48    0.00000E+00     0.00
   80.00    30.00     -34.38 -999.99  -34.38    0.00000     0.00  LINEAR    4.44789E-04   170.30    0.00000E+00     0.00
   90.00    30.00    -999.99 -999.99 -999.99    0.00000     0.00            1.86865E-14   -12.14    0.00000E+00     0.00
  -90.00    40.00    -999.99 -999.99 -999.99    0.00000     0.00            1.86865E-14   167.86    0.00000E+00     0.00
  -80.00    40.00     -34.38 -999.99  -34.38    0.00000     0.00  LINEAR    4.44789E-04    -9.70    0.00000E+00     0.00
  -70.00    40.00     -31.10 -999.99  -31.10    0.00000     0.00  LINEAR    6.49338E-04    -8.52    0.00000E+00     0.00
  -60.00    40.00     -30.19 -999.99  -30.19    0.00000     0.00  LINEAR    7.20795E-04    -7.89    0.00000E+00     0.00
  -50.00    40.00     -30.38 -999.99  -30.38    0.00000     0.00  LINEAR    7.05315E-04    -7.54    0.00000E+00     0.00
  -40.00    40.00     -31.38 -999.99  -31.38    0.00000     0.00  LINEAR    6.28405E-04    -7.33    0.00000E+00     0.00
  -30.00    40.00     -33.24 -999.99  -33.24    0.00000     0.00  LINEAR    5.07140E-04    -7.20    0.00000E+00     0.00
  -20.00    40.00     -36.35 -999.99  -36.35    0.00000     0.00  LINEAR    3.54683E-04    -7.13    0.00000E+00     0.00
  -10.00    40.00     -42.13 -999.99  -42.13    0.00000     0.00  LINEAR    1.82234E-04    -7.09    0.00000E+00     0.00
    0.00    40.00    -999.99 -999.99 -999.99    0.00000     0.00            0.00000E+00     0.00    0.00000E+00     0.00
   10.00    40.00     -42.13 -999.99  -42.13    0.00000     0.00  LINEAR    1.82234E-04   172.91    0.00000E+00     0.00
   20.00    40.00     -36.35 -999.99  -36.35    0.00000     0.00  LINEAR    3.54683E-04   172.87    0.00000E+00     0.00
   30.00    40.00     -33.24 -999.99  -33.24    0.00000     0.00  LINEAR    5.07140E-04   172.80    0.00000E+00     0.00
   40.00    40.00     -31.38 -999.99  -31.38    0.00000     0.00  LINEAR    6.28405E-04   172.67    0.00000E+00     0.00
   50.00    40.00     -30.38 -999.99  -30.38    0.00000     0.00  LINEAR    7.05315E-04   172.46    0.00000E+00     0.00
   60.00    40.00     -30.19 -999.99  -30.19    0.00000     0.00  LINEAR    7.20795E-04   172.11    0.00000E+00     0.00
   70.00    40.00     -31.10 -999.99  -31.10    0.00000     0.00  LINEAR    6.49338E-04   171.48    0.00000E+00     0.00
   80.00    40.00     -34.38 -999.99  -34.38    0.00000     0.00  LINEAR    4.44789E-04   170.30    0.00000E+00     0.00
   90.00    40.00    -999.99 -999.99 -999.99    0.00000     0.00            1.86865E-14   -12.14    0.00000E+00     0.00
  -90.00    50.00    -999.99 -999.99 -999.99    0.00000     0.00            1.86865E-14   167.86    0.00000E+00     0.00
  -80.00    50.00     -34.38 -999.99  -34.38    0.00000     0.00  LINEAR    4.44789E-04    -9.70    0.00000E+00     0.00
  -70.00    50.00     -31.10 -999.99  -31.10    0.00000     0.00  LINEAR    6.49338E-04    -8.52    0.00000E+00     0.00
  -60.00    50.00     -30.19 -999.99  -30.19    0.00000     0.00  LINEAR    7.20795E-04    -7.89    0.00000E+00     0.00
  -50.00    50.00     -30.38 -999.99  -30.38    0.00000     0.00  LINEAR    7.05315E-04    -7.54    0.00000E+00     0.00
  -40.00    50.00     -31.38 -999.99  -31.38    0.00000     0.00  LINEAR    6.28405E-04    -7.33    0.00000E+00     0.00
  -30.00    50.00     -33.24 -999.99  -33.24    0.00000     0.00  LINEAR    5.07140E-04    -7.20    0.00000E+00     0.00
  -20.00    50.00     -36.35 -999.99  -36.35    0.00000     0.00  LINEAR    3.54683E-04    -7.13    0.00000E+00     0.00
  -10.00    50.00     -42.13 -999.99  -42.13    0.00000     0.00  LINEAR    1.82234E-04    -7.09    0.00000E+00     0.00
    0.00    50.00    -999.99 -999.99 -999.99    0.00000     0.00            0.00000E+00     0.00    0.00000E+00     0.00
   10.00    50.00     -42.13 -999.99  -42.13    0.00000     0.00  LINEAR    1.82234E-04   172.91    0.00000E+00     0.00
   20.00    50.00     -36.35 -999.99  -36.35    0.00000     0.00  LINEAR    3.54683E-04   172.87    0.00000E+00     0.00
   30.00    50.00     -33.24 -999.99  -33.24    0.00000     0.00  LINEAR    5.07140E-04   172.80    0.00000E+00     0.00
   40.00    50.00     -31.38 -999.99  -31.38    0.00000     0.00  LINEAR    6.28405E-04   172.67    0.00000E+00     0.00
   50.00    50.00     -30.38 -999.99  -30.38    0.00000     0.00  LINEAR    7.05315E-04   172.46    0.00000E+00     0.00
   60.00    50.00     -30.19 -999.99  -30.19    0.00000     0.00  LINEAR    7.20795E-04   172.11    0.00000E+00     0.00
   70.00    50.00     -31.10 -999.99  -31.10    0.00000     0.00  LINEAR    6.49338E-04   171.48    0.00000E+00     0.00
   80.00    50.00     -34.38 -999.99  -34.38    0.00000     0.00  LINEAR    4.44789E-04   170.30    0.00000E+00     0.00
   90.00    50.00    -999.99 -999.99 -999.99    0.00000     0.00            1.86865E-14   -12.14    0.00000E+00     0.00
  -90.00    60.00    -999.99 -999.99 -999.99    0.00000     0.00            1.86865E-14   167.86    0.00000E+00     0.00
  -80.00    60.00     -34.38 -999.99  -34.38    0.00000     0.00  LINEAR    4.44789E-04    -9.70    0.00000E+00     0.00
  -70.00    60.00     -31.10 -999.99  -31.10    0.00000     0.00  LINEAR    6.49338E-04    -8.52    0.00000E+00     0.00
  -60.00    60.00     -30.19 -999.99  -30.19    0.00000     0.00  LINEAR    7.20795E-04    -7.89    0.00000E+00     0.00
  -50.00    60.00     -30.38 -999.99  -30.38    0.00000     0.00  LINEAR    7.05315E-04    -7.54    0.00000E+00     0.00
  -40.00    60.00     -31.38 -999.99  -31.38    0.00000     0.00  LINEAR    6.28405E-04    -7.33    0.00000E+00     0.00
  -30.00    60.00     -33.24 -999.99  -33.24    0.00000     0.00  LINEAR    5.07140E-04    -7.20    0.00000E+00     0.00
  -20.00    60.00     -36.35 -999.99  -36.35    0.00000     0.00  LINEAR    3.54683E-04    -7.13    0.00000E+00     0.00
  -10.00    60.00     -42.13 -999.99  -42.13    0.00000     0.00  LINEAR    1.82234E-04    -7.09    0.00000E+00     0.00
    0.00    60.00    -999.99 -999.99 -999.99    0.00000     0.00            0.00000E+00     0.00    0.00000E+00     0.00
   10.00    60.00     -42.13 -999.99  -42.13    0.00000     0.00  LINEAR    1.82234E-04   172.91    0.00000E+00     0.00
   20.00    60.00     -36.35 -999.99  -36.35    0.00000     0.00  LINEAR    3.54683E-04   172.87    0.00000E+00     0.00
   30.00    60.00     -33.24 -999.99  -33.24    0.00000     0.00  LINEAR    5.07140E-04   172.80    0.00000E+00     0.00
   40.00    60.00     -31.38 -999.99  -31.38    0.00000     0.00  LINEAR    6.28405E-04   172.67    0.00000E+00     0.00
   50.00    60.00     -30.38 -999.99  -30.38    0.00000     0.00  LINEAR    7.05315E-04   172.46    0.00000E+00     0.00
   60.00    60.00     -30.19 -999.99  -30.19    0.00000     0.00  LINEAR    7.20795E-04   172.11    0.00000E+00     0.00
   70.00    60.00     -31.10 -999.99  -31.10    0.00000     0.00  LINEAR    6.49338E-04   171.48    0.00000E+00     0.00
   80.00    60.00     -34.38 -999.99  -34.38    0.00000     0.00  LINEAR    4.44789E-04   170.30    0.00000E+00     0.00
   90.00    60.00    -999.99 -999.99 -999.99    0.00000     0.00            1.86865E-14   -12.14    0.00000E+00     0.00
  -90.00    70.00    -999.99 -999.99 -999.99    0.00000     0.00            1.86865E-14   167.86    0.00000E+00     0.00
  -80.00    70.00     -34.38 -999.99  -34.38    0.00000     0.00  LINEAR    4.44789E-04    -9.70    0.00000E+00     0.00
  -70.00    70.00     -31.10 -999.99  -31.10    0.00000     0.00  LINEAR    6.49338E-04    -8.52    0.00000E+00     0.00
  -60.00    70.00     -30.19 -999.99  -30.19    0.00000     0.00  LINEAR    7.20795E-04    -7.89    0.00000E+00     0.00
  -50.00    70.00     -30.38 -999.99  -30.38    0.00000     0.00  LINEAR    7.05315E-04    -7.54    0.00000E+00     0.00
  -40.00    70.00     -31.38 -999.99  -31.38    0.00000     0.00  LINEAR    6.28405E-04    -7.33    0.00000E+00     0.00
  -30.00    70.00     -33.24 -999.99  -33.24    0.00000     0.00  LINEAR    5.07140E-04    -7.20    0.00000E+00     0.00
  -20.00    70.00     -36.35 -999.99  -36.35    0.00000     0.00  LINEAR    3.54683E-04    -7.13    0.00000E+00     0.00
  -10.00    70.00     -42.13 -999.99  -42.13    0.00000     0.00  LINEAR    1.82234E-04    -7.09    0.00000E+00     0.00
    0.00    70.00    -999.99 -999.99 -999.99    0.00000     0.00            0.00000E+00     0.00    0.00000E+00     0.00
   10.00    70.00     -42.13 -999.99  -42.13    0.00000     0.00  LINEAR    1.82234E-04   172.91    0.00000E+00     0.00
   20.00    70.00     -36.35 -999.99  -36.35    0.00000     0.00  LINEAR    3.54683E-04   172.87    0.00000E+00     0.00
   30.00    70.00     -33.24 -999.99  -33.24    0.00000     0.00  LINEAR    5.07140E-04   172.80    0.00000E+00     0.00
   40.00    70.00     -31.38 -999.99  -31.38    0.00000     0.00  LINEAR    6.28405E-04   172.67    0.00000E+00     0.00
   50.00    70.00     -30.38 -999.99  -30.38    0.00000     0.00  LINEAR    7.05315E-04   172.46    0.00000E+00     0.00
   60.00    70.00     -30.19 -999.99  -30.19    0.00000     0.00  LINEAR    7.20795E-04   172.11    0.00000E+00     0.00
   70.00    70.00     -31.10 -999.99  -31.10    0.00000     0.00  LINEAR    6.49338E-04   171.48    0.00000E+00     0.00
   80.00    70.00     -34.38 -999.99  -34.38    0.00000     0.00  LINEAR    4.44789E-04   170.30    0.00000E+00     0.00
   90.00    70.00    -999.99 -999.99 -999.99    0.00000     0.00            1.86865E-14   -12.14    0.00000E+00     0.00
  -90.00    80.00    -999.99 -999.99 -999.99    0.00000     0.00            1.86865E-14   167.86    0.00000E+00     0.00
  -80.00    80.00     -34.38 -999.99  -34.38    0.00000     0.00  LINEAR    4.44789E-04    -9.70    0.00000E+00     0.00
  -70.00    80.00     -31.10 -999.99  -31.10    0.00000     0.00  LINEAR    6.49338E-04    -8.52    0.00000E+00     0.00
  -60.00    80.00     -30.19 -999.99  -30.19    0.00000     0.00  LINEAR    7.20795E-04    -7.89    0.00000E+00     0.00
  -50.00    80.00     -30.38 -999.99  -30.38    0.00000     0.00  LINEAR    7.05315E-04    -7.54    0.00000E+00     0.00
  -40.00    80.00     -31.38 -999.99  -31.38    0.00000     0.00  LINEAR    6.28405E-04    -7.33    0.00000E+00     0.00
  -30.00    80.00     -33.24 -999.99  -33.24    0.00000     0.00  LINEAR    5.07140E-04    -7.20    0.00000E+00     0.00
  -20.00    80.00     -36.35 -999.99  -36.35    0.00000     0.00  LINEAR    3.54683E-04    -7.13    0.00000E+00     0.00
  -10.00    80.00     -42.13 -999.99  -42.13    0.00000     0.00  LINEAR    1.82234E-04    -7.09    0.00000E+00     0.00
    0.00    80.00    -999.99 -999.99 -999.99    0.00000     0.00            0.00000E+00     0.00    0.00000E+00     0.00
   10.00    80.00     -42.13 -999.99  -42.13    0.00000     0.00  LINEAR    1.82234E-04   172.91    0.00000E+00     0.00
   20.00    80.00     -36.35 -999.99  -36.35    0.00000     0.00  LINEAR    3.54683E-04   172.87    0.00000E+00     0.00
   30.00    80.00     -33.24 -999.99  -33.24    0.00000     0.00  LINEAR    5.07140E-04   172.80    0.00000E+00     0.00
   40.00    80.00     -31.38 -999.99  -31.38    0.00000     0.00  LINEAR    6.28405E-04   172.67    0.00000E+00     0.00
   50.00    80.00     -30.38 -999.99  -30.38    0.00000     0.00  LINEAR    7.05315E-04   172.46    0.00000E+00     0.00
   60.00    80.00     -30.19 -999.99  -30.19    0.00000     0.00  LINEAR    7.20795E-04   172.11    0.00000E+00     0.00
   70.00    80.00     -31.10 -999.99  -31.10    0.00000     0.00  LINEAR    6.49338E-04   171.48    0.00000E+00     0.00
   80.00    80.00     -34.38 -999.99  -34.38    0.00000     0.00  LINEAR    4.44789E-04   170.30    0.00000E+00     0.00
   90.00    80.00    -999.99 -999.99 -999.99    0.00000     0.00            1.86865E-14   -12.14    0.00000E+00     0.00
  -90.00    90.00    -999.99 -999.99 -999.99    0.00000     0.00            1.86865E-14   167.86    0.00000E+00     0.00
  -80.00    90.00     -34.38 -999.99  -34.38    0.00000     0.00  LINEAR    4.44789E-04    -9.70    0.00000E+00     0.00
  -70.00    90.00     -31.10 -999.99  -31.10    0.00000     0.00  LINEAR    6.49338E-04    -8.52    0.00000E+00     0.00
  -60.00    90.00     -30.19 -999.99  -30.19    0.00000     0.00  LINEAR    7.20795E-04    -7.89    0.00000E+00     0.00
  -50.00    90.00     -30.38 -999.99  -30.38    0.00000     0.00  LINEAR    7.05315E-04    -7.54    0.00000E+00     0.00
  -40.00    90.00     -31.38 -999.99  -31.38    0.00000     0.00  LINEAR    6.28405E-04    -7.33    0.00000E+00     0.00
  -30.00    90.00     -33.24 -999.99  -33.24    0.00000     0.00  LINEAR    5.07140E-04    -7.20    0.00000E+00     0.00
  -20.00    90.00     -36.35 -999.99  -36.35    0.00000     0.00  LINEAR    3.54683E-04    -7.13    0.00000E+00     0.00
  -10.00    90.00     -42.13 -999.99  -42.13    0.00000     0.00  LINEAR    1.82234E-04    -7.09    0.00000E+00     0.00
    0.00    90.00    -999.99 -999.99 -999.99    0.00000     0.00            0.00000E+00     0.00    0.00000E+00     0.00
   10.00    90.00     -42.13 -999.99  -42.13    0.00000     0.00  LINEAR    1.82234E-04   172.91    0.00000E+00     0.00
   20.00    90.00     -36.35 -999.99  -36.35    0.00000     0.00  LINEAR    3.54683E-04   172.87    0.00000E+00     0.00
   30.00    90.00     -33.24 -999.99  -33.24    0.00000     0.00  LINEAR    5.07140E-04   172.80    0.00000E+00     0.00
   40.00    90.00     -31.38 -999.99  -31.38    0.00000     0.00  LINEAR    6.28405E-04   172.67    0.00000E+00     0.00
   50.00    90.00     -30.38 -999.99  -30.38    0.00000     0.00  LINEAR    7.05315E-04   172.46    0.00000E+00     0.00
   60.00    90.00     -30.19 -999.99  -30.19    0.00000     0.00  LINEAR    7.20795E-04   172.11    0.00000E+00     0.00
   70.00    90.00     -31.10 -999.99  -31.10    0.00000     0.00  LINEAR    6.49338E-04   171.48    0.00000E+00     0.00
   80.00    90.00     -34.38 -999.99  -34.38    0.00000     0.00  LINEAR    4.44789E-04   170.30    0.00000E+00     0.00
   90.00    90.00    -999.99 -999.99 -999.99    0.00000     0.00            1.86865E-14   -12.14    0.00000E+00     0.00
  -90.00   100.00    -999.99 -999.99 -999.99    0.00000     0.00            1.86865E-14   167.86    0.00000E+00     0.00
  -80.00   100.00     -34.38 -999.99  -34.38    0.00000     0.00  LINEAR    4.44789E-04    -9.70    0.00000E+00     0.00
  -70.00   100.00     -31.10 -999.99  -31.10    0.00000     0.00  LINEAR    6.49338E-04    -8.52    0.00000E+00     0.00
  -60.00   100.00     -30.19 -999.99  -30.19    0.00000     0.00  LINEAR    7.20795E-04    -7.89    0.00000E+00     0.00
  -50.00   100.00     -30.38 -999.99  -30.38    0.00000     0.00  LINEAR    7.05315E-04    -7.54    0.00000E+00     0.00
  -40.00   100.00     -31.38 -999.99  -31.38    0.00000     0.00  LINEAR    6.28405E-04    -7.33    0.00000E+00     0.00
  -30.00   100.00     -33.24 -999.99  -33.24    0.00000     0.00  LINEAR    5.07140E-04    -7.20    0.00000E+00     0.00
  -20.00   100.00     -36.35 -999.99  -36.35    0.00000     0.00  LINEAR    3.54683E-04    -7.13    0.00000E+00     0.00
  -10.00   100.00     -42.13 -999.99  -42.13    0.00000     0.00  LINEAR    1.82234E-04    -7.09    0.00000E+00     0.00
    0.00   100.00    -999.99 -999.99 -999.99    0.00000     0.00            0.00000E+00     0.00    0.00000E+00     0.00
   10.00   100.00     -42.13 -999.99  -42.13    0.00000     0.00  LINEAR    1.82234E-04   172.91    0.00000E+00     0.00
   20.00   100.00     -36.35 -999.99  -36.35    0.00000     0.00  LINEAR    3.54683E-04   172.87    0.00000E+00     0.00
   30.00   100.00     -33.24 -999.99  -33.24    0.00000     0.00  LINEAR    5.07140E-04   172.80    0.00000E+00     0.00
   40.00   100.00     -31.38 -999.99  -31.38    0.00000     0.00  LINEAR    6.28405E-04   172.67    0.00000E+00     0.00
   50.00   100.00     -30.38 -999.99  -30.38    0.00000     0.00  LINEAR    7.05315E-04   172.46    0.00000E+00     0.00
   60.00   100.00     -30.19 -999.99  -30.19    0.00000     0.00  LINEAR    7.20795E-04   172.11    0.00000E+00     0.00
   70.00   100.00     -31.10 -999.99  -31.10    0.00000     0.00  LINEAR    6.49338E-04   171.48    0.00000E+00     0.00
   80.00   100.00     -34.38 -999.99  -34.38    0.00000     0.00  LINEAR    4.44789E-04   170.30    0.00000E+00     0.00
   90.00   100.00    -999.99 -999.99 -999.99    0.00000     0.00            1.86865E-14   -12.14    0.00000E+00     0.00
  -90.00   110.00    -999.99 -999.99 -999.99    0.00000     0.00            1.86865E-14   167.86    0.00000E+00     0.00
  -80.00   110.00     -34.38 -999.99  -34.38    0.00000     0.00  LINEAR    4.44789E-04    -9.70    0.00000E+00     0.00
  -70.00   110.00     -31.10 -999.99  -31.10    0.00000     0.00  LINEAR    6.49338E-04    -8.52    0.00000E+00     0.00
  -60.00   110.00     -30.19 -999.99  -30.19    0.00000     0.00  LINEAR    7.20795E-04    -7.89    0.00000E+00     0.00
  -50.00   110.00     -30.38 -999.99  -30.38    0.00000     0.00  LINEAR    7.05315E-04    -7.54    0.00000E+00     0.00
  -40.00   110.00     -31.38 -999.99  -31.38    0.00000     0.00  LINEAR    6.28405E-04    -7.33    0.00000E+00     0.00
  -30.00   110.00     -33.24 -999.99  -33.24    0.00000     0.00  LINEAR    5.07140E-04    -7.20    0.00000E+00     0.00
  -20.00   110.00     -36.35 -999.99  -36.35    0.00000     0.00  LINEAR    3.54683E-04    -7.13    0.00000E+00     0.00
  -10.00   110.00     -42.13 -999.99  -42.13    0.00000     0.00  LINEAR    1.82234E-04    -7.09    0.00000E+00     0.00
    0.00   110.00    -999.99 -999.99 -999.99    0.00000     0.00            0.00000E+00     0.00    0.00000E+00     0.00
   10.00   110.00     -42.13 -999.99  -42.13    0.00000     0.00  LINEAR    1.82234E-04   172.91    0.00000E+00     0.00
   20.00   110.00     -36.35 -999.99  -36.35    0.00000     0.00  LINEAR    3.54683E-04   172.87    0.00000E+00     0.00
   30.00   110.00     -33.24 -999.99  -33.24    0.00000     0.00  LINEAR    5.07140E-04   172.80    0.00000E+00     0.00
   40.00   110.00     -31.38 -999.99  -31.38    0.00000     0.00  LINEAR    6.28405E-04   172.67    0.00000E+00     0.00
   50.00   110.00     -30.38 -999.99  -30.38    0.00000     0.00  LINEAR    7.05315E-04   172.46    0.00000E+00     0.00
   60.00   110.00     -30.19 -999.99  -30.19    0.00000     0.00  LINEAR    7.20795E-04   172.11    0.00000E+00     0.00
   70.00   110.00     -31.10 -999.99  -31.10    0.00000     0.00  LINEAR    6.49338E-04   171.48    0.00000E+00     0.00
   80.00   110.00     -34.38 -999.99  -34.38    0.00000     0.00  LINEAR    4.44789E-04   170.30    0.00000E+00     0.00
   90.00   110.00    -999.99 -999.99 -999.99    0.00000     0.00            1.86865E-14   -12.14    0.00000E+00     0.00
  -90.00   120.00    -999.99 -999.99 -999.99    0.00000     0.00            1.86865E-14   167.86    0.00000E+00     0.00
  -80.00   120.00     -34.38 -999.99  -34.38    0.00000     0.00  LINEAR    4.44789E-04    -9.70    0.00000E+00     0.00
  -70.00   120.00     -31.10 -999.99  -31.10    0.00000     0.00  LINEAR    6.49338E-04    -8.52    0.00000E+00     0.00
  -60.00   120.00     -30.19 -999.99  -30.19    0.00000     0.00  LINEAR    7.20795E-04    -7.89    0.00000E+00     0.00
  -50.00   120.00     -30.38 -999.99  -30.38    0.00000     0.00  LINEAR    7.05315E-04    -7.54    0.00000E+00     0.00
  -40.00   120.00     -31.38 -999.99  -31.38    0.00000     0.00  LINEAR    6.28405E-04    -7.33    0.00000E+00     0.00
  -30.00   120.00     -33.24 -999.99  -33.24    0.00000     0.00  LINEAR    5.07140E-04    -7.20    0.00000E+00     0.00
  -20.00   120.00     -36.35 -999.99  -36.35    0.00000     0.00  LINEAR    3.54683E-04    -7.13    0.00000E+00     0.00
  -10.00   120.00     -42.13 -999.99  -42.13    0.00000     0.00  LINEAR    1.82234E-04    -7.09    0.00000E+00     0.00
    0.00   120.00    -999.99 -999.99 -999.99    0.00000     0.00            0.00000E+00     0.00    0.00000E+00     0.00
   10.00   120.00     -42.13 -999.99  -42.13    0.00000     0.00  LINEAR    1.82234E-04   172.91    0.00000E+00     0.00
   20.00   120.00     -36.35 -999.99  -36.35    0.00000     0.00  LINEAR    3.54683E-04   172.87    0.00000E+00     0.00
   30.00   120.00     -33.24 -999.99  -33.24    0.00000     0.00  LINEAR    5.07140E-04   172.80    0.00000E+00     0.00
   40.00   120.00     -31.38 -999.99  -31.38    0.00000     0.00  LINEAR    6.28405E-04   172.67    0.00000E+00     0.00
   50.00   120.00     -30.38 -999.99  -30.38    0.00000     0.00  LINEAR    7.05315E-04   172.46    0.00000E+00     0.00
   60.00   120.00     -30.19 -999.99  -30.19    0.00000     0.00  LINEAR    7.20795E-04   172.11    0.00000E+00     0.00
   70.00   120.00     -31.10 -999.99  -31.10    0.00000     0.00  LINEAR    6.49338E-04   171.48    0.00000E+00     0.00
   80.00   120.00     -34.38 -999.99  -34.38    0.00000     0.00  LINEAR    4.44789E-04   170.30    0.00000E+00     0.00
   90.00   120.00    -999.99 -999.99 -999.99    0.00000     0.00            1.86865E-14   -12.14    0.00000E+00     0.00
  -90.00   130.00    -999.99 -999.99 -999.99    0.00000     0.00            1.86865E-14   167.86    0.00000E+00     0.00
  -80.00   130.00     -34.38 -999.99  -34.38    0.00000     0.00  LINEAR    4.44789E-04    -9.70    0.00000E+00     0.00
  -70.00   130.00     -31.10 -999.99  -31.10    0.00000     0.00  LINEAR    6.49338E-04    -8.52    0.00000E+00     0.00
  -60.00   130.00     -30.19 -999.99  -30.19    0.00000     0.00  LINEAR    7.20795E-04    -7.89    0.00000E+00     0.00
  -50.00   130.00     -30.38 -999.99  -30.38    0.00000     0.00  LINEAR    7.05315E-04    -7.54    0.00000E+00     0.00
  -40.00   130.00     -31.38 -999.99  -31.38    0.00000     0.00  LINEAR    6.28405E-04    -7.33    0.00000E+00     0.00
  -30.00   130.00     -33.24 -999.99  -33.24    0.00000     0.00  LINEAR    5.07140E-04    -7.20    0.00000E+00     0.00
  -20.00   130.00     -36.35 -999.99  -36.35    0.00000     0.00  LINEAR    3.54683E-04    -7.13    0.00000E+00     0.00
  -10.00   130.00     -42.13 -999.99  -42.13    0.00000     0.00  LINEAR    1.82234E-04    -7.09    0.00000E+00     0.00
    0.00   130.00    -999.99 -999.99 -999.99    0.00000     0.00            0.00000E+00     0.00    0.00000E+00     0.00
   10.00   130.00     -42.13 -999.99  -42.13    0.00000     0.00  LINEAR    1.82234E-04   172.91    0.00000E+00     0.00
   20.00   130.00     -36.35 -999.99  -36.35    0.00000     0.00  LINEAR    3.54683E-04   172.87    0.00000E+00     0.00
   30.00   130.00     -33.24 -999.99  -33.24    0.00000     0.00  LINEAR    5.07140E-04   172.80    0.00000E+00     0.00
   40.00   130.00     -31.38 -999.99  -31.38    0.00000     0.00  LINEAR    6.28405E-04   172.67    0.00000E+00     0.00
   50.00   130.00     -30.38 -999.99  -30.38    0.00000     0.00  LINEAR    7.05315E-04   172.46    0.00000E+00     0.00
   60.00   130.00     -30.19 -999.99  -30.19    0.00000     0.00  LINEAR    7.20795E-04   172.11    0.00000E+00     0.00
   70.00   130.00     -31.10 -999.99  -31.10    0.00000     0.00  LINEAR    6.49338E-04   171.48    0.00000E+00     0.00
   80.00   130.00     -34.38 -999.99  -34.38    0.00000     0.00  LINEAR    4.44789E-04   170.30    0.00000E+00     0.00
   90.00   130.00    -999.99 -999.99 -999.99    0.00000     0.00            1.86865E-14   -12.14    0.00000E+00     0.00
  -90.00   140.00    -999.99 -999.99 -999.99    0.00000     0.00            1.86865E-14   167.86    0.00000E+00     0.00
  -80.00   140.00     -34.38 -999.99  -34.38    0.00000     0.00  LINEAR    4.44789E-04    -9.70    0.00000E+00     0.00
  -70.00   140.00     -31.10 -999.99  -31.10    0.00000     0.00  LINEAR    6.49338E-04    -8.52    0.00000E+00     0.00
  -60.00   140.00     -30.19 -999.99  -30.19    0.00000     0.00  LINEAR    7.20795E-04    -7.89    0.00000E+00     0.00
  -50.00   140.00     -30.38 -999.99  -30.38    0.00000     0.00  LINEAR    7.05315E-04    -7.54    0.00000E+00     0.00
  -40.00   140.00     -31.38 -999.99  -31.38    0.00000     0.00  LINEAR    6.28405E-04    -7.33    0.00000E+00     0.00
  -30.00   140.00     -33.24 -999.99  -33.24    0.00000     0.00  LINEAR    5.07140E-04    -7.20    0.00000E+00     0.00
  -20.00   140.00     -36.35 -999.99  -36.35    0.00000     0.00  LINEAR    3.54683E-04    -7.13    0.00000E+00     0.00
  -10.00   140.00     -42.13 -999.99  -42.13    0.00000     0.00  LINEAR    1.82234E-04    -7.09    0.00000E+00     0.00
    0.00   140.00    -999.99 -999.99 -999.99    0.00000     0.00            0.00000E+00     0.00    0.00000E+00     0.00
   10.00   140.00     -42.13 -999.99  -42.13    0.00000     0.00  LINEAR    1.82234E-04   172.91    0.00000E+00     0.00
   20.00   140.00     -36.35 -999.99  -36.35    0.00000     0.00  LINEAR    3.54683E-04   172.87    0.00000E+00     0.00
   30.00   140.00     -33.24 -999.99  -33.24    0.00000     0.00  LINEAR    5.07140E-04   172.80    0.00000E+00     0.00
   40.00   140.00     -31.38 -999.99  -31.38    0.00000     0.00  LINEAR    6.28405E-04   172.67    0.00000E+00     0.00
   50.00   140.00     -30.38 -999.99  -30.38    0.00000     0.00  LINEAR    7.05315E-04   172.46    0.00000E+00     0.00
   60.00   140.00     -30.19 -999.99  -30.19    0.00000     0.00  LINEAR    7.20795E-04   172.11    0.00000E+00     0.00
   70.00   140.00     -31.10 -999.99  -31.10    0.00000     0.00  LINEAR    6.49338E-04   171.48    0.00000E+00     0.00
   80.00   140.00     -34.38 -999.99  -34.38    0.00000     0.00  LINEAR    4.44789E-04   170.30    0.00000E+00     0.00
   90.00   140.00    -999.99 -999.99 -999.99    0.00000     0.00            1.86865E-14   -12.14    0.00000E+00     0.00
  -90.00   150.00    -999.99 -999.99 -999.99    0.00000     0.00            1.86865E-14   167.86    0.00000E+00     0.00
  -80.00   150.00     -34.38 -999.99  -34.38    0.00000     0.00  LINEAR    4.44789E-04    -9.70    0.00000E+00     0.00
  -70.00   150.00     -31.10 -999.99  -31.10    0.00000     0.00  LINEAR    6.49338E-04    -8.52    0.00000E+00     0.00
  -60.00   150.00     -30.19 -999.99  -30.19    0.00000     0.00  LINEAR    7.20795E-04    -7.89    0.00000E+00     0.00
  -50.00   150.00     -30.38 -999.99  -30.38    0.00000     0.00  LINEAR    7.05315E-04    -7.54    0.00000E+00     0.00
  -40.00   150.00     -31.38 -999.99  -31.38    0.00000     0.00  LINEAR    6.28405E-04    -7.33    0.00000E+00     0.00
  -30.00   150.00     -33.24 -999.99  -33.24    0.00000     0.00  LINEAR    5.07140E-04    -7.20    0.00000E+00     0.00
  -20.00   150.00     -36.35 -999.99  -36.35    0.00000     0.00  LINEAR    3.54683E-04    -7.13    0.00000E+00     0.00
  -10.00   150.00     -42.13 -999.99  -42.13    0.00000     0.00  LINEAR    1.82234E-04    -7.09    0.00000E+00     0.00
    0.00   150.00    -999.99 -999.99 -999.99    0.00000     0.00            0.00000E+00     0.00    0.00000E+00     0.00
   10.00   150.00     -42.13 -999.99  -42.13    0.00000     0.00  LINEAR    1.82234E-04   172.91    0.00000E+00     0.00
   20.00   150.00     -36.35 -999.99  -36.35    0.00000     0.00  LINEAR    3.54683E-04   172.87    0.00000E+00     0.00
   30.00   150.00     -33.24 -999.99  -33.24    0.00000     0.00  LINEAR    5.07140E-04   172.80    0.00000E+00     0.00
   40.00   150.00     -31.38 -999.99  -31.38    0.00000     0.00  LINEAR    6.28405E-04   172.67    0.00000E+00     0.00
   50.00   150.00     -30.38 -999.99  -30.38    0.00000     0.00  LINEAR    7.05315E-04   172.46    0.00000E+00     0.00
   60.00   150.00     -30.19 -999.99  -30.19    0.00000     0.00  LINEAR    7.20795E-04   172.11    0.00000E+00     0.00
   70.00   150.00     -31.10 -999.99  -31.10    0.00000     0.00  LINEAR    6.49338E-04   171.48    0.00000E+00     0.00
   80.00   150.00     -34.38 -999.99  -34.38    0.00000     0.00  LINEAR    4.44789E-04   170.30    0.00000E+00     0.00
   90.00   150.00    -999.99 -999.99 -999.99    0.00000     0.00            1.86865E-14   -12.14    0.00000E+00     0.00
  -90.00   160.00    -999.99 -999.99 -999.99    0.00000     0.00            1.86865E-14   167.86    0.00000E+00     0.00
  -80.00   160.00     -34.38 -999.99  -34.38    0.00000     0.00  LINEAR    4.44789E-04    -9.70    0.00000E+00     0.00
  -70.00   160.00     -31.10 -999.99  -31.10    0.00000     0.00  LINEAR    6.49338E-04    -8.52    0.00000E+00     0.00
  -60.00   160.00     -30.19 -999.99  -30.19    0.00000     0.00  LINEAR    7.20795E-04    -7.89    0.00000E+00     0.00
  -50.00   160.00     -30.38 -999.99  -30.38    0.00000     0.00  LINEAR    7.05315E-04    -7.54    0.00000E+00     0.00
  -40.00   160.00     -31.38 -999.99  -31.38    0.00000     0.00  LINEAR    6.28405E-04    -7.33    0.00000E+00     0.00
  -30.00   160.00     -33.24 -999.99  -33.24    0.00000     0.00  LINEAR    5.07140E-04    -7.20    0.00000E+00     0.00
  -20.00   160.00     -36.35 -999.99  -36.35    0.00000     0.00  LINEAR    3.54683E-04    -7.13    0.00000E+00     0.00
  -10.00   160.00     -42.13 -999.99  -42.13    0.00000     0.00  LINEAR    1.82234E-04    -7.09    0.00000E+00     0.00
    0.00   160.00    -999.99 -999.99 -999.99    0.00000     0.00            0.00000E+00     0.00    0.00000E+00     0.00
   10.00   160.00     -42.13 -999.99  -42.13    0.00000     0.00  LINEAR    1.82234E-04   172.91    0.00000E+00     0.00
   20.00   160.00     -36.35 -999.99  -36.35    0.00000     0.00  LINEAR    3.54683E-04   172.87    0.00000E+00     0.00
   30.00   160.00     -33.24 -999.99  -33.24    0.00000     0.00  LINEAR    5.07140E-04   172.80    0.00000E+00     0.00
   40.00   160.00     -31.38 -999.99  -31.38    0.00000     0.00  LINEAR    6.28405E-04   172.67    0.00000E+00     0.00
   50.00   160.00     -30.38 -999.99  -30.38    0.00000     0.00  LINEAR    7.05315E-04   172.46    0.00000E+00     0.00
   60.00   160.00     -30.19 -999.99  -30.19    0.00000     0.00  LINEAR    7.20795E-04   172.11    0.00000E+00     0.00
   70.00   160.00     -31.10 -999.99  -31.10    0.00000     0.00  LINEAR    6.49338E-04   171.48    0.00000E+00     0.00
   80.00   160.00     -34.38 -999.99  -34.38    0.00000     0.00  LINEAR    4.44789E-04   170.30    0.00000E+00     0.00
   90.00   160.00    -999.99 -999.99 -999.99    0.00000     0.00            1.86865E-14   -12.14    0.00000E+00     0.00
  -90.00   170.00    -999.99 -999.99 -999.99    0.00000     0.00            1.86865E-14   167.86    0.00000E+00     0.00
  -80.00   170.00     -34.38 -999.99  -34.38    0.00000     0.00  LINEAR    4.44789E-04    -9.70    0.00000E+00     0.00
  -70.00   170.00     -31.10 -999.99  -31.10    0.00000     0.00  LINEAR    6.49338E-04    -8.52    0.00000E+00     0.00
  -60.00   170.00     -30.19 -999.99  -30.19    0.00000     0.00  LINEAR    7.20795E-04    -7.89    0.00000E+00     0.00
  -50.00   170.00     -30.38 -999.99  -30.38    0.00000     0.00  LINEAR    7.05315E-04    -7.54    0.00000E+00     0.00
  -40.00   170.00     -31.38 -999.99  -31.38    0.00000     0.00  LINEAR    6.28405E-04    -7.33    0.00000E+00     0.00
  -30.00   170.00     -33.24 -999.99  -33.24    0.00000     0.00  LINEAR    5.07140E-04    -7.20    0.00000E+00     0.00
  -20.00   170.00     -36.35 -999.99  -36.35    0.00000     0.00  LINEAR    3.54683E-04    -7.13    0.00000E+00     0.00
  -10.00   170.00     -42.13 -999.99  -42.13    0.00000     0.00  LINEAR    1.82234E-04    -7.09    0.00000E+00     0.00
    0.00   170.00    -999.99 -999.99 -999.99    0.00000     0.00            0.00000E+00     0.00    0.00000E+00     0.00
   10.00   170.00     -42.13 -999.99  -42.13    0.00000     0.00  LINEAR    1.82234E-04   172.91    0.00000E+00     0.00
   20.00   170.00     -36.35 -999.99  -36.35    0.00000     0.00  LINEAR    3.54683E-04   172.87    0.00000E+00     0.00
   30.00   170.00     -33.24 -999.99  -33.24    0.00000     0.00  LINEAR    5.07140E-04   172.80    0.00000E+00     0.00
   40.00   170.00     -31.38 -999.99  -31.38    0.00000     0.00  LINEAR    6.28405E-04   172.67    0.00000E+00     0.00
   50.00   170.00     -30.38 -999.99  -30.38    0.00000     0.00  LINEAR    7.05315E-04   172.46    0.00000E+00     0.00
   60.00   170.00     -30.19 -999.99  -30.19    0.00000     0.00  LINEAR    7.20795E-04   172.11    0.00000E+00     0.00
   70.00   170.00     -31.10 -999.99  -31.10    0.00000     0.00  LINEAR    6.49338E-04   171.48    0.00000E+00     0.00
   80.00   170.00     -34.38 -999.99  -34.38    0.00000     0.00  LINEAR    4.44789E-04   170.30    0.00000E+00     0.00
   90.00   170.00    -999.99 -999.99 -999.99    0.00000     0.00            1.86865E-14   -12.14    0.00000E+00     0.00
  -90.00   180.00    -999.99 -999.99 -999.99    0.00000     0.00            1.86865E-14   167.86    0.00000E+00     0.00
  -80.00   180.00     -34.38 -999.99  -34.38    0.00000     0.00  LINEAR    4.44789E-04    -9.70    0.00000E+00     0.00
  -70.00   180.00     -31.10 -999.99  -31.10    0.00000     0.00  LINEAR    6.49338E-04    -8.52    0.00000E+00     0.00
  -60.00   180.00     -30.19 -999.99  -30.19    0.00000     0.00  LINEAR    7.20795E-04    -7.89    0.00000E+00     0.00
  -50.00   180.00     -30.38 -999.99  -30.38    0.00000     0.00  LINEAR    7.05315E-04    -7.54    0.00000E+00     0.00
  -40.00   180.00     -31.38 -999.99  -31.38    0.00000     0.00  LINEAR    6.28405E-04    -7.33    0.00000E+00     0.00
  -30.00   180.00     -33.24 -999.99  -33.24    0.00000     0.00  LINEAR    5.07140E-04    -7.20    0.00000E+00     0.00
  -20.00   180.00     -36.35 -999.99  -36.35    0.00000     0.00  LINEAR    3.54683E-04    -7.13    0.00000E+00     0.00
  -10.00   180.00     -42.13 -999.99  -42.13    0.00000     0.00  LINEAR    1.82234E-04    -7.09    0.00000E+00     0.00
    0.00   180.00    -999.99 -999.99 -999.99    0.00000     0.00            0.00000E+00     0.00    0.00000E+00     0.00
   10.00   180.00     -42.13 -999.99  -42.13    0.00000     0.00  LINEAR    1.82234E-04   172.91    0.00000E+00     0.00
   20.00   180.00     -36.35 -999.99  -36.35    0.00000     0.00  LINEAR    3.54683E-04   172.87    0.00000E+00     0.00
   30.00   180.00     -33.24 -999.99  -33.24    0.00000     0.00  LINEAR    5.07140E-04   172.80    0.00000E+00     0.00
   40.00   180.00     -31.38 -999.99  -31.38    0.00000     0.00  LINEAR    6.28405E-04   172.67    0.00000E+00     0.00
   50.00   180.00     -30.38 -999.99  -30.38    0.00000     0.00  LINEAR    7.05315E-04   172.46    0.00000E+00     0.00
   60.00   180.00     -30.19 -999.99  -30.19    0.00000     0.00  LINEAR    7.20795E-04   172.11    0.00000E+00     0.00
   70.00   180.00     -31.10 -999.99  -31.10    0.00000     0.00  LINEAR    6.49338E-04   171.48    0.00000E+00     0.00
   80.00   180.00     -34.38 -999.99  -34.38    0.00000     0.00  LINEAR    4.44789E-04   170.30    0.00000E+00     0.00
   90.00   180.00    -999.99 -999.99 -999.99    0.00000     0.00            1.86865E-14   -12.14    0.00000E+00     0.00
  -90.00   190.00    -999.99 -999.99 -999.99    0.00000     0.00            1.86865E-14   167.86    0.00000E+00     0.00
  -80.00   190.00     -34.38 -999.99  -34.38    0.00000     0.00  LINEAR    4.44789E-04    -9.70    0.00000E+00     0.00
  -70.00   190.00     -31.10 -999.99  -31.10    0.00000     0.00  LINEAR    6.49338E-04    -8.52    0.00000E+00     0.00
  -60.00   190.00     -30.19 -999.99  -30.19    0.00000     0.00  LINEAR    7.20795E-04    -7.89    0.00000E+00     0.00
  -50.00   190.00     -30.38 -999.99  -30.38    0.00000     0.00  LINEAR    7.05315E-04    -7.54    0.00000E+00     0.00
  -40.00   190.00     -31.38 -999.99  -31.38    0.00000     0.00  LINEAR    6.28405E-04    -7.33    0.00000E+00     0.00
  -30.00   190.00     -33.24 -999.99  -33.24    0.00000     0.00  LINEAR    5.07140E-04    -7.20    0.00000E+00     0.00
  -20.00   190.00     -36.35 -999.99  -36.35    0.00000     0.00  LINEAR    3.54683E-04    -7.13    0.00000E+00     0.00
  -10.00   190.00     -42.13 -999.99  -42.13    0.00000     0.00  LINEAR    1.82234E-04    -7.09    0.00000E+00     0.00
    0.00   190.00    -999.99 -999.99 -999.99    0.00000     0.00            0.00000E+00     0.00    0.00000E+00     0.00
   10.00   190.00     -42.13 -999.99  -42.13    0.00000     0.00  LINEAR    1.82234E-04   172.91    0.00000E+00     0.00
   20.00   190.00     -36.35 -999.99  -36.35    0.00000     0.00  LINEAR    3.54683E-04   172.87    0.00000E+00     0.00
   30.00   190.00     -33.24 -999.99  -33.24    0.00000     0.00  LINEAR    5.07140E-04   172.80    0.00000E+00     0.00
   40.00   190.00     -31.38 -999.99  -31.38    0.00000     0.00  LINEAR    6.28405E-04   172.67    0.00000E+00     0.00
   50.00   190.00     -30.38 -999.99  -30.38    0.00000     0.00  LINEAR    7.05315E-04   172.46    0.00000E+00     0.00
   60.00   190.00     -30.19 -999.99  -30.19    0.00000     0.00  LINEAR    7.20795E-04   172.11    0.00000E+00     0.00
   70.00   190.00     -31.10 -999.99  -31.10    0.00000     0.00  LINEAR    6.49338E-04   171.48    0.00000E+00     0.00
   80.00   190.00     -34.38 -999.99  -34.38    0.00000     0.00  LINEAR    4.44789E-04   170.30    0.00000E+00     0.00
   90.00   190.00    -999.99 -999.99 -999.99    0.00000     0.00            1.86865E-14   -12.14    0.00000E+00     0.00
  -90.00   200.00    -999.99 -999.99 -999.99    0.00000     0.00            1.86865E-14   167.86    0.00000E+00     0.00
  -80.00   200.00     -34.38 -999.99  -34.38    0.00000     0.00  LINEAR    4.44789E-04    -9.70    0.00000E+00     0.00
  -70.00   200.00     -31.10 -999.99  -31.10    0.00000     0.00  LINEAR    6.49338E-04    -8.52    0.00000E+00     0.00
  -60.00   200.00     -30.19 -999.99  -30.19    0.00000     0.00  LINEAR    7.20795E-04    -7.89    0.00000E+00     0.00
  -50.00   200.00     -30.38 -999.99  -30.38    0.00000     0.00  LINEAR    7.05315E-04    -7.54    0.00000E+00     0.00
  -40.00   200.00     -31.38 -999.99  -31.38    0.00000     0.00  LINEAR    6.28405E-04    -7.33    0.00000E+00     0.00
  -30.00   200.00     -33.24 -999.99  -33.24    0.00000     0.00  LINEAR    5.07140E-04    -7.20    0.00000E+00     0.00
  -20.00   200.00     -36.35 -999.99  -36.35    0.00000     0.00  LINEAR    3.54683E-04    -7.13    0.00000E+00     0.00
  -10.00   200.00     -42.13 -999.99  -42.13    0.00000     0.00  LINEAR    1.82234E-04    -7.09    0.00000E+00     0.00
    0.00   200.00    -999.99 -999.99 -999.99    0.00000     0.00            0.00000E+00     0.00    0.00000E+00     0.00
   10.00   200.00     -42.13 -999.99  -42.13    0.00000     0.00  LINEAR    1.82234E-04   172.91    0.00000E+00     0.00
   20.00   200.00     -36.35 -999.99  -36.35    0.00000     0.00  LINEAR    3.54683E-04   172.87    0.00000E+00     0.00
   30.00   200.00     -33.24 -999.99  -33.24    0.00000     0.00  LINEAR    5.07140E-04   172.80    0.00000E+00     0.00
   40.00   200.00     -31.38 -999.99  -31.38    0.00000     0.00  LINEAR    6.28405E-04   172.67    0.00000E+00     0.00
   50.00   200.00     -30.38 -999.99  -30.38    0.00000     0.00  LINEAR    7.05315E-04   172.46    0.00000E+00     0.00
   60.00   200.00     -30.19 -999.99  -30.19    0.00000     0.00  LINEAR    7.20795E-04   172.11    0.00000E+00     0.00
   70.00   200.00     -31.10 -999.99  -31.10    0.00000     0.00  LINEAR    6.49338E-04   171.48    0.00000E+00     0.00
   80.00   200.00     -34.38 -999.99  -34.38    0.00000     0.00  LINEAR    4.44789E-04   170.30    0.00000E+00     0.00
   90.00   200.00    -999.99 -999.99 -999.99    0.00000     0.00            1.86865E-14   -12.14    0.00000E+00     0.00
  -90.00   210.00    -999.99 -999.99 -999.99    0.00000     0.00            1.86865E-14   167.86    0.00000E+00     0.00
  -80.00   210.00     -34.38 -999.99  -34.38    0.00000     0.00  LINEAR    4.44789E-04    -9.70    0.00000E+00     0.00
  -70.00   210.00     -31.10 -999.99  -31.10    0.00000     0.00  LINEAR    6.49338E-04    -8.52    0.00000E+00     0.00
  -60.00   210.00     -30.19 -999.99  -30.19    0.00000     0.00  LINEAR    7.20795E-04    -7.89    0.00000E+00     0.00
  -50.00   210.00     -30.38 -999.99  -30.38    0.00000     0.00  LINEAR    7.05315E-04    -7.54    0.00000E+00     0.00
  -40.00   210.00     -31.38 -999.99  -31.38    0.00000     0.00  LINEAR    6.28405E-04    -7.33    0.00000E+00     0.00
  -30.00   210.00     -33.24 -999.99  -33.24    0.00000     0.00  LINEAR    5.07140E-04    -7.20    0.00000E+00     0.00
  -20.00   210.00     -36.35 -999.99  -36.35    0.00000     0.00  LINEAR    3.54683E-04    -7.13    0.00000E+00     0.00
  -10.00   210.00     -42.13 -999.99  -42.13    0.00000     0.00  LINEAR    1.82234E-04    -7.09    0.00000E+00     0.00
    0.00   210.00    -999.99 -999.99 -999.99    0.00000     0.00            0.00000E+00     0.00    0.00000E+00     0.00
   10.00   210.00     -42.13 -999.99  -42.13    0.00000     0.00  LINEAR    1.82234E-04   172.91    0.00000E+00     0.00
   20.00   210.00     -36.35 -999.99  -36.35    0.00000     0.00  LINEAR    3.54683E-04   172.87    0.00000E+00     0.00
   30.00   210.00     -33.24 -999.99  -33.24    0.00000     0.00  LINEAR    5.07140E-04   172.80    0.00000E+00     0.00
   40.00   210.00     -31.38 -999.99  -31.38    0.00000     0.00  LINEAR    6.28405E-04   172.67    0.00000E+00     0.00
   50.00   210.00     -30.38 -999.99  -30.38    0.00000     0.00  LINEAR    7.05315E-04   172.46    0.00000E+00     0.00
   60.00   210.00     -30.19 -999.99  -30.19    0.00000     0.00  LINEAR    7.20795E-04   172.11    0.00000E+00     0.00
   70.00   210.00     -31.10 -999.99  -31.10    0.00000     0.00  LINEAR    6.49338E-04   171.48    0.00000E+00     0.00
   80.00   210.00     -34.38 -999.99  -34.38    0.00000     0.00  LINEAR    4.44789E-04   170.30    0.00000E+00     0.00
   90.00   210.00    -999.99 -999.99 -999.99    0.00000     0.00            1.86865E-14   -12.14    0.00000E+00     0.00
  -90.00   220.00    -999.99 -999.99 -999.99    0.00000     0.00            1.86865E-14   167.86    0.00000E+00     0.00
  -80.00   220.00     -34.38 -999.99  -34.38    0.00000     0.00  LINEAR    4.44789E-04    -9.70    0.00000E+00     0.00
  -70.00   220.00     -31.10 -999.99  -31.10    0.00000     0.00  LINEAR    6.49338E-04    -8.52    0.00000E+00     0.00
  -60.00   220.00     -30.19 -999.99  -30.19    0.00000     0.00  LINEAR    7.20795E-04    -7.89    0.00000E+00     0.00
  -50.00   220.00     -30.38 -999.99  -30.38    0.00000     0.00  LINEAR    7.05315E-04    -7.54    0.00000E+00     0.00
  -40.00   220.00     -31.38 -999.99  -31.38    0.00000     0.00  LINEAR    6.28405E-04    -7.33    0.00000E+00     0.00
  -30.00   220.00     -33.24 -999.99  -33.24    0.00000     0.00  LINEAR    5.07140E-04    -7.20    0.00000E+00     0.00
  -20.00   220.00     -36.35 -999.99  -36.35    0.00000     0.00  LINEAR    3.54683E-04    -7.13    0.00000E+00     0.00
  -10.00   220.00     -42.13 -999.99  -42.13    0.00000     0.00  LINEAR    1.82234E-04    -7.09    0.00000E+00     0.00
    0.00   220.00    -999.99 -999.99 -999.99    0.00000     0.00            0.00000E+00     0.00    0.00000E+00     0.00
   10.00   220.00     -42.13 -999.99  -42.13    0.00000     0.00  LINEAR    1.82234E-04   172.91    0.00000E+00     0.00
   20.00   220.00     -36.35 -999.99  -36.35    0.00000     0.00  LINEAR    3.54683E-04   172.87    0.00000E+00     0.00
   30.00   220.00     -33.24 -999.99  -33.24    0.00000     0.00  LINEAR    5.07140E-04   172.80    0.00000E+00     0.00
   40.00   220.00     -31.38 -999.99  -31.38    0.00000     0.00  LINEAR    6.28405E-04   172.67    0.00000E+00     0.00
   50.00   220.00     -30.38 -999.99  -30.38    0.00000     0.00  LINEAR    7.05315E-04   172.46    0.00000E+00     0.00
   60.00   220.00     -30.19 -999.99  -30.19    0.00000     0.00  LINEAR    7.20795E-04   172.11    0.00000E+00     0.00
   70.00   220.00     -31.10 -999.99  -31.10    0.00000     0.00  LINEAR    6.49338E-04   171.48    0.00000E+00     0.00
   80.00   220.00     -34.38 -999.99  -34.38    0.00000     0.00  LINEAR    4.44789E-04   170.30    0.00000E+00     0.00
   90.00   220.00    -999.99 -999.99 -999.99    0.00000     0.00            1.86865E-14   -12.14    0.00000E+00     0.00
  -90.00   230.00    -999.99 -999.99 -999.99    0.00000     0.00            1.86865E-14   167.86    0.00000E+00     0.00
  -80.00   230.00     -34.38 -999.99  -34.38    0.00000     0.00  LINEAR    4.44789E-04    -9.70    0.00000E+00     0.00
  -70.00   230.00     -31.10 -999.99  -31.10    0.00000     0.00  LINEAR    6.49338E-04    -8.52    0.00000E+00     0.00
  -60.00   230.00     -30.19 -999.99  -30.19    0.00000     0.00  LINEAR    7.20795E-04    -7.89    0.00000E+00     0.00
  -50.00   230.00     -30.38 -999.99  -30.38    0.00000     0.00  LINEAR    7.05315E-04    -7.54    0.00000E+00     0.00
  -40.00   230.00     -31.38 -999.99  -31.38    0.00000     0.00  LINEAR    6.28405E-04    -7.33    0.00000E+00     0.00
  -30.00   230.00     -33.24 -999.99  -33.24    0.00000     0.00  LINEAR    5.07140E-04    -7.20    0.00000E+00     0.00
  -20.00   230.00     -36.35 -999.99  -36.35    0.00000     0.00  LINEAR    3.54683E-04    -7.13    0.00000E+00     0.00
  -10.00   230.00     -42.13 -999.99  -42.13    0.00000     0.00  LINEAR    1.82234E-04    -7.09    0.00000E+00     0.00
    0.00   230.00    -999.99 -999.99 -999.99    0.00000     0.00            0.00000E+00     0.00    0.00000E+00     0.00
   10.00   230.00     -42.13 -999.99  -42.13    0.00000     0.00  LINEAR    1.82234E-04   172.91    0.00000E+00     0.00
   20.00   230.00     -36.35 -999.99  -36.35    0.00000     0.00  LINEAR    3.54683E-04   172.87    0.00000E+00     0.00
   30.00   230.00     -33.24 -999.99  -33.24    0.00000     0.00  LINEAR    5.07140E-04   172.80    0.00000E+00     0.00
   40.00   230.00     -31.38 -999.99  -31.38    0.00000     0.00  LINEAR    6.28405E-04   172.67    0.00000E+00     0.00
   50.00   230.00     -30.38 -999.99  -30.38    0.00000     0.00  LINEAR    7.05315E-04   172.46    0.00000E+00     0.00
   60.00   230.00     -30.19 -999.99  -30.19    0.00000     0.00  LINEAR    7.20795E-04   172.11    0.00000E+00     0.00
   70.00   230.00     -31.10 -999.99  -31.10    0.00000     0.00  LINEAR    6.49338E-04   171.48    0.00000E+00     0.00
   80.00   230.00     -34.38 -999.99  -34.38    0.00000     0.00  LINEAR    4.44789E-04   170.30    0.00000E+00     0.00
   90.00   230.00    -999.99 -999.99 -999.99    0.00000     0.00            1.86865E-14   -12.14    0.00000E+00     0.00
  -90.00   240.00    -999.99 -999.99 -999.99    0.00000     0.00            1.86865E-14   167.86    0.00000E+00     0.00
  -80.00   240.00     -34.38 -999.99  -34.38    0.00000     0.00  LINEAR    4.44789E-04    -9.70    0.00000E+00     0.00
  -70.00   240.00     -31.10 -999.99  -31.10    0.00000     0.00  LINEAR    6.49338E-04    -8.52    0.00000E+00     0.00
  -60.00   240.00     -30.19 -999.99  -30.19    0.00000     0.00  LINEAR    7.20795E-04    -7.89    0.00000E+00     0.00
  -50.00   240.00     -30.38 -999.99  -30.38    0.00000     0.00  LINEAR    7.05315E-04    -7.54    0.00000E+00     0.00
  -40.00   240.00     -31.38 -999.99  -31.38    0.00000     0.00  LINEAR    6.28405E-04    -7.33    0.00000E+00     0.00
  -30.00   240.00     -33.24 -999.99  -33.24    0.00000     0.00  LINEAR    5.07140E-04    -7.20    0.00000E+00     0.00
  -20.00   240.00     -36.35 -999.99  -36.35    0.00000     0.00  LINEAR    3.54683E-04    -7.13    0.00000E+00     0.00
  -10.00   240.00     -42.13 -999.99  -42.13    0.00000     0.00  LINEAR    1.82234E-04    -7.09    0.00000E+00     0.00
    0.00   240.00    -999.99 -999.99 -999.99    0.00000     0.00            0.00000E+00     0.00    0.00000E+00     0.00
   10.00   240.00     -42.13 -999.99  -42.13    0.00000     0.00  LINEAR    1.82234E-04   172.91    0.00000E+00     0.00
   20.00   240.00     -36.35 -999.99  -36.35    0.00000     0.00  LINEAR    3.54683E-04   172.87    0.00000E+00     0.00
   30.00   240.00     -33.24 -999.99  -33.24    0.00000     0.00  LINEAR    5.07140E-04   172.80    0.00000E+00     0.00
   40.00   240.00     -31.38 -999.99  -31.38    0.00000     0.00  LINEAR    6.28405E-04   172.67    0.00000E+00     0.00
   50.00   240.00     -30.38 -999.99  -30.38    0.00000     0.00  LINEAR    7.05315E-04   172.46    0.00000E+00     0.00
   60.00   240.00     -30.19 -999.99  -30.19    0.00000     0.00  LINEAR    7.20795E-04   172.11    0.00000E+00     0.00
   70.00   240.00     -31.10 -999.99  -31.10    0.00000     0.00  LINEAR    6.49338E-04   171.48    0.00000E+00     0.00
   80.00   240.00     -34.38 -999.99  -34.38    0.00000     0.00  LINEAR    4.44789E-04   170.30    0.00000E+00     0.00
   90.00   240.00    -999.99 -999.99 -999.99    0.00000     0.00            1.86865E-14   -12.14    0.00000E+00     0.00
  -90.00   250.00    -999.99 -999.99 -999.99    0.00000     0.00            1.86865E-14   167.86    0.00000E+00     0.00
  -80.00   250.00     -34.38 -999.99  -34.38    0.00000     0.00  LINEAR    4.44789E-04    -9.70    0.00000E+00     0.00
  -70.00   250.00     -31.10 -999.99  -31.10    0.00000     0.00  LINEAR    6.49338E-04    -8.52    0.00000E+00     0.00
  -60.00   250.00     -30.19 -999.99  -30.19    0.00000     0.00  LINEAR    7.20795E-04    -7.89    0.00000E+00     0.00
  -50.00   250.00     -30.38 -999.99  -30.38    0.00000     0.00  LINEAR    7.05315E-04    -7.54    0.00000E+00     0.00
  -40.00   250.00     -31.38 -999.99  -31.38    0.00000     0.00  LINEAR    6.28405E-04    -7.33    0.00000E+00     0.00
  -30.00   250.00     -33.24 -999.99  -33.24    0.00000     0.00  LINEAR    5.07140E-04    -7.20    0.00000E+00     0.00
  -20.00   250.00     -36.35 -999.99  -36.35    0.00000     0.00  LINEAR    3.54683E-04    -7.13    0.00000E+00     0.00
  -10.00   250.00     -42.13 -999.99  -42.13    0.00000     0.00  LINEAR    1.82234E-04    -7.09    0.00000E+00     0.00
    0.00   250.00    -999.99 -999.99 -999.99    0.00000     0.00            0.00000E+00     0.00    0.00000E+00     0.00
   10.00   250.00     -42.13 -999.99  -42.13    0.00000     0.00  LINEAR    1.82234E-04   172.91    0.00000E+00     0.00
   20.00   250.00     -36.35 -999.99  -36.35    0.00000     0.00  LINEAR    3.54683E-04   172.87    0.00000E+00     0.00
   30.00   250.00     -33.24 -999.99  -33.24    0.00000     0.00  LINEAR    5.07140E-04   172.80    0.00000E+00     0.00
   40.00   250.00     -31.38 -999.99  -31.38    0.00000     0.00  LINEAR    6.28405E-04   172.67    0.00000E+00     0.00
   50.00   250.00     -30.38 -999.99  -30.38    0.00000     0.00  LINEAR    7.05315E-04   172.46    0.00000E+00     0.00
   60.00   250.00     -30.19 -999.99  -30.19    0.00000     0.00  LINEAR    7.20795E-04   172.11    0.00000E+00     0.00
   70.00   250.00     -31.10 -999.99  -31.10    0.00000     0.00  LINEAR    6.49338E-04   171.48    0.00000E+00     0.00
   80.00   250.00     -34.38 -999.99  -34.38    0.00000     0.00  LINEAR    4.44789E-04   170.30    0.00000E+00     0.00
   90.00   250.00    -999.99 -999.99 -999.99    0.00000     0.00            1.86865E-14   -12.14    0.00000E+00     0.00
  -90.00   260.00    -999.99 -999.99 -999.99    0.00000     0.00            1.86865E-14   167.86    0.00000E+00     0.00
  -80.00   260.00     -34.38 -999.99  -34.38    0.00000     0.00  LINEAR    4.44789E-04    -9.70    0.00000E+00     0.00
  -70.00   260.00     -31.10 -999.99  -31.10    0.00000     0.00  LINEAR    6.49338E-04    -8.52    0.00000E+00     0.00
  -60.00   260.00     -30.19 -999.99  -30.19    0.00000     0.00  LINEAR    7.20795E-04    -7.89    0.00000E+00     0.00
  -50.00   260.00     -30.38 -999.99  -30.38    0.00000     0.00  LINEAR    7.05315E-04    -7.54    0.00000E+00     0.00
  -40.00   260.00     -31.38 -999.99  -31.38    0.00000     0.00  LINEAR    6.28405E-04    -7.33    0.00000E+00     0.00
  -30.00   260.00     -33.24 -999.99  -33.24    0.00000     0.00  LINEAR    5.07140E-04    -7.20    0.00000E+00     0.00
  -20.00   260.00     -36.35 -999.99  -36.35    0.00000     0.00  LINEAR    3.54683E-04    -7.13    0.00000E+00     0.00
  -10.00   260.00     -42.13 -999.99  -42.13    0.00000     0.00  LINEAR    1.82234E-04    -7.09    0.00000E+00     0.00
    0.00   260.00    -999.99 -999.99 -999.99    0.00000     0.00            0.00000E+00     0.00    0.00000E+00     0.00
   10.00   260.00     -42.13 -999.99  -42.13    0.00000     0.00  LINEAR    1.82234E-04   172.91    0.00000E+00     0.00
   20.00   260.00     -36.35 -999.99  -36.35    0.00000     0.00  LINEAR    3.54683E-04   172.87    0.00000E+00     0.00
   30.00   260.00     -33.24 -999.99  -33.24    0.00000     0.00  LINEAR    5.07140E-04   172.80    0.00000E+00     0.00
   40.00   260.00     -31.38 -999.99  -31.38    0.00000     0.00  LINEAR    6.28405E-04   172.67    0.00000E+00     0.00
   50.00   260.00     -30.38 -999.99  -30.38    0.00000     0.00  LINEAR    7.05315E-04   172.46    0.00000E+00     0.00
   60.00   260.00     -30.19 -999.99  -30.19    0.00000     0.00  LINEAR    7.20795E-04   172.11    0.00000E+00     0.00
   70.00   260.00     -31.10 -999.99  -31.10    0.00000     0.00  LINEAR    6.49338E-04   171.48    0.00000E+00     0.00
   80.00   260.00     -34.38 -999.99  -34.38    0.00000     0.00  LINEAR    4.44789E-04   170.30    0.00000E+00     0.00
   90.00   260.00    -999.99 -999.99 -999.99    0.00000     0.00            1.86865E-14   -12.14    0.00000E+00     0.00
  -90.00   270.00    -999.99 -999.99 -999.99    0.00000     0.00            1.86865E-14   167.86    0.00000E+00     0.00
  -80.00   270.00     -34.38 -999.99  -34.38    0.00000     0.00  LINEAR    4.44789E-04    -9.70    0.00000E+00     0.00
  -70.00   270.00     -31.10 -999.99  -31.10    0.00000     0.00  LINEAR    6.49338E-04    -8.52    0.00000E+00     0.00
  -60.00   270.00     -30.19 -999.99  -30.19    0.00000     0.00  LINEAR    7.20795E-04    -7.89    0.00000E+00     0.00
  -50.00   270.00     -30.38 -999.99  -30.38    0.00000     0.00  LINEAR    7.05315E-04    -7.54    0.00000E+00     0.00
  -40.00   270.00     -31.38 -999.99  -31.38    0.00000     0.00  LINEAR    6.28405E-04    -7.33    0.00000E+00     0.00
  -30.00   270.00     -33.24 -999.99  -33.24    0.00000     0.00  LINEAR    5.07140E-04    -7.20    0.00000E+00     0.00
  -20.00   270.00     -36.35 -999.99  -36.35    0.00000     0.00  LINEAR    3.54683E-04    -7.13    0.00000E+00     0.00
  -10.00   270.00     -42.13 -999.99  -42.13    0.00000     0.00  LINEAR    1.82234E-04    -7.09    0.00000E+00     0.00
    0.00   270.00    -999.99 -999.99 -999.99    0.00000     0.00            0.00000E+00     0.00    0.00000E+00     0.00
   10.00   270.00     -42.13 -999.99  -42.13    0.00000     0.00  LINEAR    1.82234E-04   172.91    0.00000E+00     0.00
   20.00   270.00     -36.35 -999.99  -36.35    0.00000     0.00  LINEAR    3.54683E-04   172.87    0.00000E+00     0.00
   30.00   270.00     -33.24 -999.99  -33.24    0.00000     0.00  LINEAR    5.07140E-04   172.80    0.00000E+00     0.00
   40.00   270.00     -31.38 -999.99  -31.38    0.00000     0.00  LINEAR    6.28405E-04   172.67    0.00000E+00     0.00
   50.00   270.00     -30.38 -999.99  -30.38    0.00000     0.00  LINEAR    7.05315E-04   172.46    0.00000E+00     0.00
   60.00   270.00     -30.19 -999.99  -30.19    0.00000     0.00  LINEAR    7.20795E-04   172.11    0.00000E+00     0.00
   70.00   270.00     -31.10 -999.99  -31.10    0.00000     0.00  LINEAR    6.49338E-04   171.48    0.00000E+00     0.00
   80.00   270.00     -34.38 -999.99  -34.38    0.00000     0.00  LINEAR    4.44789E-04   170.30    0.00000E+00     0.00
   90.00   270.00    -999.99 -999.99 -999.99    0.00000     0.00            1.86865E-14   -12.14    0.00000E+00     0.00
  -90.00   280.00    -999.99 -999.99 -999.99    0.00000     0.00            1.86865E-14   167.86    0.00000E+00     0.00
  -80.00   280.00     -34.38 -999.99  -34.38    0.00000     0.00  LINEAR    4.44789E-04    -9.70    0.00000E+00     0.00
  -70.00   280.00     -31.10 -999.99  -31.10    0.00000     0.00  LINEAR    6.49338E-04    -8.52    0.00000E+00     0.00
  -60.00   280.00     -30.19 -999.99  -30.19    0.00000     0.00  LINEAR    7.20795E-04    -7.89    0.00000E+00     0.00
  -50.00   280.00     -30.38 -999.99  -30.38    0.00000     0.00  LINEAR    7.05315E-04    -7.54    0.00000E+00     0.00
  -40.00   280.00     -31.38 -999.99  -31.38    0.00000     0.00  LINEAR    6.28405E-04    -7.33    0.00000E+00     0.00
  -30.00   280.00     -33.24 -999.99  -33.24    0.00000     0.00  LINEAR    5.07140E-04    -7.20    0.00000E+00     0.00
  -20.00   280.00     -36.35 -999.99  -36.35    0.00000     0.00  LINEAR    3.54683E-04    -7.13    0.00000E+00     0.00
  -10.00   280.00     -42.13 -999.99  -42.13    0.00000     0.00  LINEAR    1.82234E-04    -7.09    0.00000E+00     0.00
    0.00   280.00    -999.99 -999.99 -999.99    0.00000     0.00            0.00000E+00     0.00    0.00000E+00     0.00
   10.00   280.00     -42.13 -999.99  -42.13    0.00000     0.00  LINEAR    1.82234E-04   172.91    0.00000E+00     0.00
   20.00   280.00     -36.35 -999.99  -36.35    0.00000     0.00  LINEAR    3.54683E-04   172.87    0.00000E+00     0.00
   30.00   280.00     -33.24 -999.99  -33.24    0.00000     0.00  LINEAR    5.07140E-04   172.80    0.00000E+00     0.00
   40.00   280.00     -31.38 -999.99  -31.38    0.00000     0.00  LINEAR    6.28405E-04   172.67    0.00000E+00     0.00
   50.00   280.00     -30.38 -999.99  -30.38    0.00000     0.00  LINEAR    7.05315E-04   172.46    0.00000E+00     0.00
   60.00   280.00     -30.19 -999.99  -30.19    0.00000     0.00  LINEAR    7.20795E-04   172.11    0.00000E+00     0.00
   70.00   280.00     -31.10 -999.99  -31.10    0.00000     0.00  LINEAR    6.49338E-04   171.48    0.00000E+00     0.00
   80.00   280.00     -34.38 -999.99  -34.38    0.00000     0.00  LINEAR    4.44789E-04   170.30    0.00000E+00     0.00
   90.00   280.00    -999.99 -999.99 -999.99    0.00000     0.00            1.86865E-14   -12.14    0.00000E+00     0.00
  -90.00   290.00    -999.99 -999.99 -999.99    0.00000     0.00            1.86865E-14   167.86    0.00000E+00     0.00
  -80.00   290.00     -34.38 -999.99  -34.38    0.00000     0.00  LINEAR    4.44789E-04    -9.70    0.00000E+00     0.00
  -70.00   290.00     -31.10 -999.99  -31.10    0.00000     0.00  LINEAR    6.49338E-04    -8.52    0.00000E+00     0.00
  -60.00   290.00     -30.19 -999.99  -30.19    0.00000     0.00  LINEAR    7.20795E-04    -7.89    0.00000E+00     0.00
  -50.00   290.00     -30.38 -999.99  -30.38    0.00000     0.00  LINEAR    7.05315E-04    -7.54    0.00000E+00     0.00
  -40.00   290.00     -31.38 -999.99  -31.38    0.00000     0.00  LINEAR    6.28405E-04    -7.33    0.00000E+00     0.00
  -30.00   290.00     -33.24 -999.99  -33.24    0.00000     0.00  LINEAR    5.07140E-04    -7.20    0.00000E+00     0.00
  -20.00   290.00     -36.35 -999.99  -36.35    0.00000     0.00  LINEAR    3.54683E-04    -7.13    0.00000E+00     0.00
  -10.00   290.00     -42.13 -999.99  -42.13    0.00000     0.00  LINEAR    1.82234E-04    -7.09    0.00000E+00     0.00
    0.00   290.00    -999.99 -999.99 -999.99    0.00000     0.00            0.00000E+00     0.00    0.00000E+00     0.00
   10.00   290.00     -42.13 -999.99  -42.13    0.00000     0.00  LINEAR    1.82234E-04   172.91    0.00000E+00     0.00
   20.00   290.00     -36.35 -999.99  -36.35    0.00000     0.00  LINEAR    3.54683E-04   172.87    0.00000E+00     0.00
   30.00   290.00     -33.24 -999.99  -33.24    0.00000     0.00  LINEAR    5.07140E-04   172.80    0.00000E+00     0.00
   40.00   290.00     -31.38 -999.99  -31.38    0.00000     0.00  LINEAR    6.28405E-04   172.67    0.00000E+00     0.00
   50.00   290.00     -30.38 -999.99  -30.38    0.00000     0.00  LINEAR    7.05315E-04   172.46    0.00000E+00     0.00
[...]
  -20.00   280.00     -18.06 -999.99  -18.06    0.00000     0.00  LINEAR    3.32121E-03     3.56    0.00000E+00     0.00
  -10.00   280.00     -23.88 -999.99  -23.88    0.00000     0.00  LINEAR    1.69947E-03     3.65    0.00000E+00     0.00
    0.00   280.00    -999.99 -999.99 -999.99    0.00000     0.00            0.00000E+00     0.00    0.00000E+00     0.00
   10.00   280.00     -23.88 -999.99  -23.88    0.00000     0.00  LINEAR    1.69947E-03  -176.35    0.00000E+00     0.00
   20.00   280.00     -18.06 -999.99  -18.06    0.00000     0.00  LINEAR    3.32121E-03  -176.44    0.00000E+00     0.00
   30.00   280.00     -14.90 -999.99  -14.90    0.00000     0.00  LINEAR    4.77877E-03  -176.59    0.00000E+00     0.00
   40.00   280.00     -12.97 -999.99  -12.97    0.00000     0.00  LINEAR    5.96779E-03  -176.79    0.00000E+00     0.00
   50.00   280.00     -11.90 -999.99  -11.90    0.00000     0.00  LINEAR    6.75469E-03  -177.02    0.00000E+00     0.00
   60.00   280.00     -11.64 -999.99  -11.64    0.00000     0.00  LINEAR    6.95825E-03  -177.29    0.00000E+00     0.00
   70.00   280.00     -12.49 -999.99  -12.49    0.00000     0.00  LINEAR    6.30903E-03  -177.61    0.00000E+00     0.00
   80.00   280.00     -15.74 -999.99  -15.74    0.00000     0.00  LINEAR    4.33809E-03  -178.07    0.00000E+00     0.00
   90.00   280.00    -999.99 -999.99 -999.99    0.00000     0.00            1.82302E-13     1.11    0.00000E+00     0.00
  -90.00   290.00    -999.99 -999.99 -999.99    0.00000     0.00            1.82302E-13  -178.89    0.00000E+00     0.00
  -80.00   290.00     -15.74 -999.99  -15.74    0.00000     0.00  LINEAR    4.33809E-03     1.93    0.00000E+00     0.00
  -70.00   290.00     -12.49 -999.99  -12.49    0.00000     0.00  LINEAR    6.30903E-03     2.39    0.00000E+00     0.00
  -60.00   290.00     -11.64 -999.99  -11.64    0.00000     0.00  LINEAR    6.95825E-03     2.71    0.00000E+00     0.00
  -50.00   290.00     -11.90 -999.99  -11.90    0.00000     0.00  LINEAR    6.75469E-03     2.98    0.00000E+00     0.00
  -40.00   290.00     -12.97 -999.99  -12.97    0.00000     0.00  LINEAR    5.96779E-03     3.21    0.00000E+00     0.00
  -30.00   290.00     -14.90 -999.99  -14.90    0.00000     0.00  LINEAR    4.77877E-03     3.41    0.00000E+00     0.00
  -20.00   290.00     -18.06 -999.99  -18.06    0.00000     0.00  LINEAR    3.32121E-03     3.56    0.00000E+00     0.00
  -10.00   290.00     -23.88 -999.99  -23.88    0.00000     0.00  LINEAR    1.69947E-03     3.65    0.00000E+00     0.00
    0.00   290.00    -999.99 -999.99 -999.99    0.00000     0.00            0.00000E+00     0.00    0.00000E+00     0.00
   10.00   290.00     -23.88 -999.99  -23.88    0.00000     0.00  LINEAR    1.69947E-03  -176.35    0.00000E+00     0.00
   20.00   290.00     -18.06 -999.99  -18.06    0.00000     0.00  LINEAR    3.32121E-03  -176.44    0.00000E+00     0.00
   30.00   290.00     -14.90 -999.99  -14.90    0.00000     0.00  LINEAR    4.77877E-03  -176.59    0.00000E+00     0.00
   40.00   290.00     -12.97 -999.99  -12.97    0.00000     0.00  LINEAR    5.96779E-03  -176.79    0.00000E+00     0.00
   50.00   290.00     -11.90 -999.99  -11.90    0.00000     0.00  LINEAR    6.75469E-03  -177.02    0.00000E+00     0.00
   60.00   290.00     -11.64 -999.99  -11.64    0.00000     0.00  LINEAR    6.95825E-03  -177.29    0.00000E+00     0.00
   70.00   290.00     -12.49 -999.99  -12.49    0.00000     0.00  LINEAR    6.30903E-03  -177.61    0.00000E+00     0.00
   80.00   290.00     -15.74 -999.99  -15.74    0.00000     0.00  LINEAR    4.33809E-03  -178.07    0.00000E+00     0.00
   90.00   290.00    -999.99 -999.99 -999.99    0.00000     0.00            1.82302E-13     1.11    0.00000E+00     0.00
  -90.00   300.00    -999.99 -999.99 -999.99    0.00000     0.00            1.82302E-13  -178.89    0.00000E+00     0.00
  -80.00   300.00     -15.74 -999.99  -15.74    0.00000     0.00  LINEAR    4.33809E-03     1.93    0.00000E+00     0.00
  -70.00   300.00     -12.49 -999.99  -12.49    0.00000     0.00  LINEAR    6.30903E-03     2.39    0.00000E+00     0.00
  -60.00   300.00     -11.64 -999.99  -11.64    0.00000     0.00  LINEAR    6.95825E-03     2.71    0.00000E+00     0.00
  -50.00   300.00     -11.90 -999.99  -11.90    0.00000     0.00  LINEAR    6.75469E-03     2.98    0.00000E+00     0.00
  -40.00   300.00     -12.97 -999.99  -12.97    0.00000     0.00  LINEAR    5.96779E-03     3.21    0.00000E+00     0.00
  -30.00   300.00     -14.90 -999.99  -14.90    0.00000     0.00  LINEAR    4.77877E-03     3.41    0.00000E+00     0.00
  -20.00   300.00     -18.06 -999.99  -18.06    0.00000     0.00  LINEAR    3.32121E-03     3.56    0.00000E+00     0.00
  -10.00   300.00     -23.88 -999.99  -23.88    0.00000     0.00  LINEAR    1.69947E-03     3.65    0.00000E+00     0.00
    0.00   300.00    -999.99 -999.99 -999.99    0.00000     0.00            0.00000E+00     0.00    0.00000E+00     0.00
   10.00   300.00     -23.88 -999.99  -23.88    0.00000     0.00  LINEAR    1.69947E-03  -176.35    0.00000E+00     0.00
   20.00   300.00     -18.06 -999.99  -18.06    0.00000     0.00  LINEAR    3.32121E-03  -176.44    0.00000E+00     0.00
   30.00   300.00     -14.90 -999.99  -14.90    0.00000     0.00  LINEAR    4.77877E-03  -176.59    0.00000E+00     0.00
   40.00   300.00     -12.97 -999.99  -12.97    0.00000     0.00  LINEAR    5.96779E-03  -176.79    0.00000E+00     0.00
   50.00   300.00     -11.90 -999.99  -11.90    0.00000     0.00  LINEAR    6.75469E-03  -177.02    0.00000E+00     0.00
   60.00   300.00     -11.64 -999.99  -11.64    0.00000     0.00  LINEAR    6.95825E-03  -177.29    0.00000E+00     0.00
   70.00   300.00     -12.49 -999.99  -12.49    0.00000     0.00  LINEAR    6.30903E-03  -177.61    0.00000E+00     0.00
   80.00   300.00     -15.74 -999.99  -15.74    0.00000     0.00  LINEAR    4.33809E-03  -178.07    0.00000E+00     0.00
   90.00   300.00    -999.99 -999.99 -999.99    0.00000     0.00            1.82302E-13     1.11    0.00000E+00     0.00
  -90.00   310.00    -999.99 -999.99 -999.99    0.00000     0.00            1.82302E-13  -178.89    0.00000E+00     0.00
  -80.00   310.00     -15.74 -999.99  -15.74    0.00000     0.00  LINEAR    4.33809E-03     1.93    0.00000E+00     0.00
  -70.00   310.00     -12.49 -999.99  -12.49    0.00000     0.00  LINEAR    6.30903E-03     2.39    0.00000E+00     0.00
  -60.00   310.00     -11.64 -999.99  -11.64    0.00000     0.00  LINEAR    6.95825E-03     2.71    0.00000E+00     0.00
  -50.00   310.00     -11.90 -999.99  -11.90    0.00000     0.00  LINEAR    6.75469E-03     2.98    0.00000E+00     0.00
  -40.00   310.00     -12.97 -999.99  -12.97    0.00000     0.00  LINEAR    5.96779E-03     3.21    0.00000E+00     0.00
  -30.00   310.00     -14.90 -999.99  -14.90    0.00000     0.00  LINEAR    4.77877E-03     3.41    0.00000E+00     0.00
  -20.00   310.00     -18.06 -999.99  -18.06    0.00000     0.00  LINEAR    3.32121E-03     3.56    0.00000E+00     0.00
  -10.00   310.00     -23.88 -999.99  -23.88    0.00000     0.00  LINEAR    1.69947E-03     3.65    0.00000E+00     0.00
    0.00   310.00    -999.99 -999.99 -999.99    0.00000     0.00            0.00000E+00     0.00    0.00000E+00     0.00
   10.00   310.00     -23.88 -999.99  -23.88    0.00000     0.00  LINEAR    1.69947E-03  -176.35    0.00000E+00     0.00
   20.00   310.00     -18.06 -999.99  -18.06    0.00000     0.00  LINEAR    3.32121E-03  -176.44    0.00000E+00     0.00
   30.00   310.00     -14.90 -999.99  -14.90    0.00000     0.00  LINEAR    4.77877E-03  -176.59    0.00000E+00     0.00
   40.00   310.00     -12.97 -999.99  -12.97    0.00000     0.00  LINEAR    5.96779E-03  -176.79    0.00000E+00     0.00
   50.00   310.00     -11.90 -999.99  -11.90    0.00000     0.00  LINEAR    6.75469E-03  -177.02    0.00000E+00     0.00
   60.00   310.00     -11.64 -999.99  -11.64    0.00000     0.00  LINEAR    6.95825E-03  -177.29    0.00000E+00     0.00
   70.00   310.00     -12.49 -999.99  -12.49    0.00000     0.00  LINEAR    6.30903E-03  -177.61    0.00000E+00     0.00
   80.00   310.00     -15.74 -999.99  -15.74    0.00000     0.00  LINEAR    4.33809E-03  -178.07    0.00000E+00     0.00
   90.00   310.00    -999.99 -999.99 -999.99    0.00000     0.00            1.82302E-13     1.11    0.00000E+00     0.00
  -90.00   320.00    -999.99 -999.99 -999.99    0.00000     0.00            1.82302E-13  -178.89    0.00000E+00     0.00
  -80.00   320.00     -15.74 -999.99  -15.74    0.00000     0.00  LINEAR    4.33809E-03     1.93    0.00000E+00     0.00
  -70.00   320.00     -12.49 -999.99  -12.49    0.00000     0.00  LINEAR    6.30903E-03     2.39    0.00000E+00     0.00
  -60.00   320.00     -11.64 -999.99  -11.64    0.00000     0.00  LINEAR    6.95825E-03     2.71    0.00000E+00     0.00
  -50.00   320.00     -11.90 -999.99  -11.90    0.00000     0.00  LINEAR    6.75469E-03     2.98    0.00000E+00     0.00
  -40.00   320.00     -12.97 -999.99  -12.97    0.00000     0.00  LINEAR    5.96779E-03     3.21    0.00000E+00     0.00
  -30.00   320.00     -14.90 -999.99  -14.90    0.00000     0.00  LINEAR    4.77877E-03     3.41    0.00000E+00     0.00
  -20.00   320.00     -18.06 -999.99  -18.06    0.00000     0.00  LINEAR    3.32121E-03     3.56    0.00000E+00     0.00
  -10.00   320.00     -23.88 -999.99  -23.88    0.00000     0.00  LINEAR    1.69947E-03     3.65    0.00000E+00     0.00
    0.00   320.00    -999.99 -999.99 -999.99    0.00000     0.00            0.00000E+00     0.00    0.00000E+00     0.00
   10.00   320.00     -23.88 -999.99  -23.88    0.00000     0.00  LINEAR    1.69947E-03  -176.35    0.00000E+00     0.00
   20.00   320.00     -18.06 -999.99  -18.06    0.00000     0.00  LINEAR    3.32121E-03  -176.44    0.00000E+00     0.00
   30.00   320.00     -14.90 -999.99  -14.90    0.00000     0.00  LINEAR    4.77877E-03  -176.59    0.00000E+00     0.00
   40.00   320.00     -12.97 -999.99  -12.97    0.00000     0.00  LINEAR    5.96779E-03  -176.79    0.00000E+00     0.00
   50.00   320.00     -11.90 -999.99  -11.90    0.00000     0.00  LINEAR    6.75469E-03  -177.02    0.00000E+00     0.00
   60.00   320.00     -11.64 -999.99  -11.64    0.00000     0.00  LINEAR    6.95825E-03  -177.29    0.00000E+00     0.00
   70.00   320.00     -12.49 -999.99  -12.49    0.00000     0.00  LINEAR    6.30903E-03  -177.61    0.00000E+00     0.00
   80.00   320.00     -15.74 -999.99  -15.74    0.00000     0.00  LINEAR    4.33809E-03  -178.07    0.00000E+00     0.00
   90.00   320.00    -999.99 -999.99 -999.99    0.00000     0.00            1.82302E-13     1.11    0.00000E+00     0.00
  -90.00   330.00    -999.99 -999.99 -999.99    0.00000     0.00            1.82302E-13  -178.89    0.00000E+00     0.00
  -80.00   330.00     -15.74 -999.99  -15.74    0.00000     0.00  LINEAR    4.33809E-03     1.93    0.00000E+00     0.00
  -70.00   330.00     -12.49 -999.99  -12.49    0.00000     0.00  LINEAR    6.30903E-03     2.39    0.00000E+00     0.00
  -60.00   330.00     -11.64 -999.99  -11.64    0.00000     0.00  LINEAR    6.95825E-03     2.71    0.00000E+00     0.00
  -50.00   330.00     -11.90 -999.99  -11.90    0.00000     0.00  LINEAR    6.75469E-03     2.98    0.00000E+00     0.00
  -40.00   330.00     -12.97 -999.99  -12.97    0.00000     0.00  LINEAR    5.96779E-03     3.21    0.00000E+00     0.00
  -30.00   330.00     -14.90 -999.99  -14.90    0.00000     0.00  LINEAR    4.77877E-03     3.41    0.00000E+00     0.00
  -20.00   330.00     -18.06 -999.99  -18.06    0.00000     0.00  LINEAR    3.32121E-03     3.56    0.00000E+00     0.00
  -10.00   330.00     -23.88 -999.99  -23.88    0.00000     0.00  LINEAR    1.69947E-03     3.65    0.00000E+00     0.00
    0.00   330.00    -999.99 -999.99 -999.99    0.00000     0.00            0.00000E+00     0.00    0.00000E+00     0.00
   10.00   330.00     -23.88 -999.99  -23.88    0.00000     0.00  LINEAR    1.69947E-03  -176.35    0.00000E+00     0.00
   20.00   330.00     -18.06 -999.99  -18.06    0.00000     0.00  LINEAR    3.32121E-03  -176.44    0.00000E+00     0.00
   30.00   330.00     -14.90 -999.99  -14.90    0.00000     0.00  LINEAR    4.77877E-03  -176.59    0.00000E+00     0.00
   40.00   330.00     -12.97 -999.99  -12.97    0.00000     0.00  LINEAR    5.96779E-03  -176.79    0.00000E+00     0.00
   50.00   330.00     -11.90 -999.99  -11.90    0.00000     0.00  LINEAR    6.75469E-03  -177.02    0.00000E+00     0.00
   60.00   330.00     -11.64 -999.99  -11.64    0.00000     0.00  LINEAR    6.95825E-03  -177.29    0.00000E+00     0.00
   70.00   330.00     -12.49 -999.99  -12.49    0.00000     0.00  LINEAR    6.30903E-03  -177.61    0.00000E+00     0.00
   80.00   330.00     -15.74 -999.99  -15.74    0.00000     0.00  LINEAR    4.33809E-03  -178.07    0.00000E+00     0.00
   90.00   330.00    -999.99 -999.99 -999.99    0.00000     0.00            1.82302E-13     1.11    0.00000E+00     0.00
  -90.00   340.00    -999.99 -999.99 -999.99    0.00000     0.00            1.82302E-13  -178.89    0.00000E+00     0.00
  -80.00   340.00     -15.74 -999.99  -15.74    0.00000     0.00  LINEAR    4.33809E-03     1.93    0.00000E+00     0.00
  -70.00   340.00     -12.49 -999.99  -12.49    0.00000     0.00  LINEAR    6.30903E-03     2.39    0.00000E+00     0.00
  -60.00   340.00     -11.64 -999.99  -11.64    0.00000     0.00  LINEAR    6.95825E-03     2.71    0.00000E+00     0.00
  -50.00   340.00     -11.90 -999.99  -11.90    0.00000     0.00  LINEAR    6.75469E-03     2.98    0.00000E+00     0.00
  -40.00   340.00     -12.97 -999.99  -12.97    0.00000     0.00  LINEAR    5.96779E-03     3.21    0.00000E+00     0.00
  -30.00   340.00     -14.90 -999.99  -14.90    0.00000     0.00  LINEAR    4.77877E-03     3.41    0.00000E+00     0.00
  -20.00   340.00     -18.06 -999.99  -18.06    0.00000     0.00  LINEAR    3.32121E-03     3.56    0.00000E+00     0.00
  -10.00   340.00     -23.88 -999.99  -23.88    0.00000     0.00  LINEAR    1.69947E-03     3.65    0.00000E+00     0.00
    0.00   340.00    -999.99 -999.99 -999.99    0.00000     0.00            0.00000E+00     0.00    0.00000E+00     0.00
   10.00   340.00     -23.88 -999.99  -23.88    0.00000     0.00  LINEAR    1.69947E-03  -176.35    0.00000E+00     0.00
   20.00   340.00     -18.06 -999.99  -18.06    0.00000     0.00  LINEAR    3.32121E-03  -176.44    0.00000E+00     0.00
   30.00   340.00     -14.90 -999.99  -14.90    0.00000     0.00  LINEAR    4.77877E-03  -176.59    0.00000E+00     0.00
   40.00   340.00     -12.97 -999.99  -12.97    0.00000     0.00  LINEAR    5.96779E-03  -176.79    0.00000E+00     0.00
   50.00   340.00     -11.90 -999.99  -11.90    0.00000     0.00  LINEAR    6.75469E-03  -177.02    0.00000E+00     0.00
   60.00   340.00     -11.64 -999.99  -11.64    0.00000     0.00  LINEAR    6.95825E-03  -177.29    0.00000E+00     0.00
   70.00   340.00     -12.49 -999.99  -12.49    0.00000     0.00  LINEAR    6.30903E-03  -177.61    0.00000E+00     0.00
   80.00   340.00     -15.74 -999.99  -15.74    0.00000     0.00  LINEAR    4.33809E-03  -178.07    0.00000E+00     0.00
   90.00   340.00    -999.99 -999.99 -999.99    0.00000     0.00            1.82302E-13     1.11    0.00000E+00     0.00
  -90.00   350.00    -999.99 -999.99 -999.99    0.00000     0.00            1.82302E-13  -178.89    0.00000E+00     0.00
  -80.00   350.00     -15.74 -999.99  -15.74    0.00000     0.00  LINEAR    4.33809E-03     1.93    0.00000E+00     0.00
  -70.00   350.00     -12.49 -999.99  -12.49    0.00000     0.00  LINEAR    6.30903E-03     2.39    0.00000E+00     0.00
  -60.00   350.00     -11.64 -999.99  -11.64    0.00000     0.00  LINEAR    6.95825E-03     2.71    0.00000E+00     0.00
  -50.00   350.00     -11.90 -999.99  -11.90    0.00000     0.00  LINEAR    6.75469E-03     2.98    0.00000E+00     0.00
  -40.00   350.00     -12.97 -999.99  -12.97    0.00000     0.00  LINEAR    5.96779E-03     3.21    0.00000E+00     0.00
  -30.00   350.00     -14.90 -999.99  -14.90    0.00000     0.00  LINEAR    4.77877E-03     3.41    0.00000E+00     0.00
  -20.00   350.00     -18.06 -999.99  -18.06    0.00000     0.00  LINEAR    3.32121E-03     3.56    0.00000E+00     0.00
  -10.00   350.00     -23.88 -999.99  -23.88    0.00000     0.00  LINEAR    1.69947E-03     3.65    0.00000E+00     0.00
    0.00   350.00    -999.99 -999.99 -999.99    0.00000     0.00            0.00000E+00     0.00    0.00000E+00     0.00
   10.00   350.00     -23.88 -999.99  -23.88    0.00000     0.00  LINEAR    1.69947E-03  -176.35    0.00000E+00     0.00
   20.00   350.00     -18.06 -999.99  -18.06    0.00000     0.00  LINEAR    3.32121E-03  -176.44    0.00000E+00     0.00
   30.00   350.00     -14.90 -999.99  -14.90    0.00000     0.00  LINEAR    4.77877E-03  -176.59    0.00000E+00     0.00
   40.00   350.00     -12.97 -999.99  -12.97    0.00000     0.00  LINEAR    5.96779E-03  -176.79    0.00000E+00     0.00
   50.00   350.00     -11.90 -999.99  -11.90    0.00000     0.00  LINEAR    6.75469E-03  -177.02    0.00000E+00     0.00
   60.00   350.00     -11.64 -999.99  -11.64    0.00000     0.00  LINEAR    6.95825E-03  -177.29    0.00000E+00     0.00
   70.00   350.00     -12.49 -999.99  -12.49    0.00000     0.00  LINEAR    6.30903E-03  -177.61    0.00000E+00     0.00
   80.00   350.00     -15.74 -999.99  -15.74    0.00000     0.00  LINEAR    4.33809E-03  -178.07    0.00000E+00     0.00
   90.00   350.00    -999.99 -999.99 -999.99    0.00000     0.00            1.82302E-13     1.11    0.00000E+00     0.00
  -90.00   360.00    -999.99 -999.99 -999.99    0.00000     0.00            1.82302E-13  -178.89    0.00000E+00     0.00
  -80.00   360.00     -15.74 -999.99  -15.74    0.00000     0.00  LINEAR    4.33809E-03     1.93    0.00000E+00     0.00
  -70.00   360.00     -12.49 -999.99  -12.49    0.00000     0.00  LINEAR    6.30903E-03     2.39    0.00000E+00     0.00
  -60.00   360.00     -11.64 -999.99  -11.64    0.00000     0.00  LINEAR    6.95825E-03     2.71    0.00000E+00     0.00
  -50.00   360.00     -11.90 -999.99  -11.90    0.00000     0.00  LINEAR    6.75469E-03     2.98    0.00000E+00     0.00
  -40.00   360.00     -12.97 -999.99  -12.97    0.00000     0.00  LINEAR    5.96779E-03     3.21    0.00000E+00     0.00
  -30.00   360.00     -14.90 -999.99  -14.90    0.00000     0.00  LINEAR    4.77877E-03     3.41    0.00000E+00     0.00
  -20.00   360.00     -18.06 -999.99  -18.06    0.00000     0.00  LINEAR    3.32121E-03     3.56    0.00000E+00     0.00
  -10.00   360.00     -23.88 -999.99  -23.88    0.00000     0.00  LINEAR    1.69947E-03     3.65    0.00000E+00     0.00
    0.00   360.00    -999.99 -999.99 -999.99    0.00000     0.00            0.00000E+00     0.00    0.00000E+00     0.00
   10.00   360.00     -23.88 -999.99  -23.88    0.00000     0.00  LINEAR    1.69947E-03  -176.35    0.00000E+00     0.00
   20.00   360.00     -18.06 -999.99  -18.06    0.00000     0.00  LINEAR    3.32121E-03  -176.44    0.00000E+00     0.00
   30.00   360.00     -14.90 -999.99  -14.90    0.00000     0.00  LINEAR    4.77877E-03  -176.59    0.00000E+00     0.00
   40.00   360.00     -12.97 -999.99  -12.97    0.00000     0.00  LINEAR    5.96779E-03  -176.79    0.00000E+00     0.00
   50.00   360.00     -11.90 -999.99  -11.90    0.00000     0.00  LINEAR    6.75469E-03  -177.02    0.00000E+00     0.00
   60.00   360.00     -11.64 -999.99  -11.64    0.00000     0.00  LINEAR    6.95825E-03  -177.29    0.00000E+00     0.00
   70.00   360.00     -12.49 -999.99  -12.49    0.00000     0.00  LINEAR    6.30903E-03  -177.61    0.00000E+00     0.00
   80.00   360.00     -15.74 -999.99  -15.74    0.00000     0.00  LINEAR    4.33809E-03  -178.07    0.00000E+00     0.00
   90.00   360.00    -999.99 -999.99 -999.99    0.00000     0.00            1.82302E-13     1.11    0.00000E+00     0.00
 ***** DATA CARD NO.  9   EN   0    19    37  1000 -9.00000E+01  0.00000E+00  1.00000E+01  1.00000E+01  0.00000E+00  0.00000E+00

 RUN TIME =     0.078
